<?xml version="1.0" encoding="UTF-8"?>

<!-- generated on 2022-03-05 20:11:01 by Eclipse SUMO netconvert Version 1.12.0
<configuration xmlns:xsi="http://www.w3.org/2001/XMLSchema-instance" xsi:noNamespaceSchemaLocation="http://sumo.dlr.de/xsd/netconvertConfiguration.xsd">

    <input>
        <osm-files value="map.osm"/>
    </input>

    <output>
        <output-file value="map.net.xml"/>
    </output>

    <projection>
        <proj.utm value="true"/>
    </projection>

    <processing>
        <geometry.remove value="true"/>
        <roundabouts.guess value="true"/>
    </processing>

    <tls_building>
        <tls.discard-simple value="true"/>
        <tls.join value="true"/>
        <tls.guess-signals value="true"/>
    </tls_building>

    <ramp_guessing>
        <ramps.guess value="true"/>
    </ramp_guessing>

    <junctions>
        <junctions.join value="true"/>
    </junctions>

    <report>
        <aggregate-warnings value="5"/>
    </report>

</configuration>
-->

<net version="1.9" junctionCornerDetail="5" limitTurnSpeed="5.50" xmlns:xsi="http://www.w3.org/2001/XMLSchema-instance" xsi:noNamespaceSchemaLocation="http://sumo.dlr.de/xsd/net_file.xsd">

    <location netOffset="-545935.66,-5339723.02" convBoundary="0.00,0.00,494.12,526.48" origBoundary="15.618319,48.209057,15.624966,48.213779" projParameter="+proj=utm +zone=33 +ellps=WGS84 +datum=WGS84 +units=m +no_defs"/>

    <type id="highway.bridleway" priority="1" numLanes="1" speed="2.78" allow="pedestrian" oneway="1" width="2.00"/>
    <type id="highway.bus_guideway" priority="1" numLanes="1" speed="27.78" allow="bus" oneway="1"/>
    <type id="highway.cycleway" priority="1" numLanes="1" speed="8.33" allow="bicycle" oneway="0" width="1.00"/>
    <type id="highway.footway" priority="1" numLanes="1" speed="2.78" allow="pedestrian" oneway="1" width="2.00"/>
    <type id="highway.ford" priority="1" numLanes="1" speed="2.78" allow="army" oneway="0"/>
    <type id="highway.living_street" priority="2" numLanes="1" speed="2.78" disallow="tram rail_urban rail rail_electric rail_fast ship" oneway="0"/>
    <type id="highway.motorway" priority="14" numLanes="2" speed="39.44" allow="private emergency authority army vip passenger hov taxi bus coach delivery truck trailer motorcycle evehicle custom1 custom2" oneway="1"/>
    <type id="highway.motorway_link" priority="9" numLanes="1" speed="22.22" allow="private emergency authority army vip passenger hov taxi bus coach delivery truck trailer motorcycle evehicle custom1 custom2" oneway="1"/>
    <type id="highway.path" priority="1" numLanes="1" speed="2.78" allow="pedestrian bicycle" oneway="0" width="2.00"/>
    <type id="highway.pedestrian" priority="1" numLanes="1" speed="2.78" allow="pedestrian" oneway="1" width="2.00"/>
    <type id="highway.primary" priority="12" numLanes="2" speed="27.78" disallow="tram rail_urban rail rail_electric rail_fast ship" oneway="0"/>
    <type id="highway.primary_link" priority="7" numLanes="1" speed="22.22" disallow="tram rail_urban rail rail_electric rail_fast ship" oneway="0"/>
    <type id="highway.raceway" priority="15" numLanes="2" speed="83.33" allow="vip" oneway="0"/>
    <type id="highway.residential" priority="3" numLanes="1" speed="13.89" disallow="tram rail_urban rail rail_electric rail_fast ship" oneway="0"/>
    <type id="highway.secondary" priority="11" numLanes="1" speed="27.78" disallow="tram rail_urban rail rail_electric rail_fast ship" oneway="0"/>
    <type id="highway.secondary_link" priority="6" numLanes="1" speed="22.22" disallow="tram rail_urban rail rail_electric rail_fast ship" oneway="0"/>
    <type id="highway.service" priority="1" numLanes="1" speed="5.56" allow="pedestrian delivery bicycle" oneway="0"/>
    <type id="highway.stairs" priority="1" numLanes="1" speed="1.39" allow="pedestrian" oneway="1" width="2.00"/>
    <type id="highway.step" priority="1" numLanes="1" speed="1.39" allow="pedestrian" oneway="1" width="2.00"/>
    <type id="highway.steps" priority="1" numLanes="1" speed="1.39" allow="pedestrian" oneway="1" width="2.00"/>
    <type id="highway.tertiary" priority="10" numLanes="1" speed="22.22" disallow="tram rail_urban rail rail_electric rail_fast ship" oneway="0"/>
    <type id="highway.tertiary_link" priority="5" numLanes="1" speed="22.22" disallow="tram rail_urban rail rail_electric rail_fast ship" oneway="0"/>
    <type id="highway.track" priority="1" numLanes="1" speed="5.56" allow="pedestrian motorcycle moped bicycle" oneway="0"/>
    <type id="highway.trunk" priority="13" numLanes="2" speed="27.78" disallow="pedestrian bicycle tram rail_urban rail rail_electric rail_fast ship" oneway="0"/>
    <type id="highway.trunk_link" priority="8" numLanes="1" speed="22.22" disallow="pedestrian bicycle tram rail_urban rail rail_electric rail_fast ship" oneway="0"/>
    <type id="highway.unclassified" priority="4" numLanes="1" speed="13.89" disallow="tram rail_urban rail rail_electric rail_fast ship" oneway="0"/>
    <type id="highway.unsurfaced" priority="1" numLanes="1" speed="8.33" disallow="tram rail_urban rail rail_electric rail_fast ship" oneway="0"/>
    <type id="railway.highspeed" priority="21" numLanes="1" speed="69.44" allow="rail_fast" oneway="1"/>
    <type id="railway.light_rail" priority="19" numLanes="1" speed="27.78" allow="rail_urban" oneway="1"/>
    <type id="railway.preserved" priority="16" numLanes="1" speed="27.78" allow="rail" oneway="1"/>
    <type id="railway.rail" priority="20" numLanes="1" speed="44.44" allow="rail" oneway="1"/>
    <type id="railway.subway" priority="18" numLanes="1" speed="27.78" allow="rail_urban" oneway="1"/>
    <type id="railway.tram" priority="17" numLanes="1" speed="13.89" allow="tram" oneway="1"/>

    <edge id=":116203300_0" function="internal">
        <lane id=":116203300_0_0" index="0" disallow="tram rail_urban rail rail_electric rail_fast ship" speed="13.89" length="14.51" shape="373.88,144.74 359.40,145.75"/>
    </edge>
    <edge id=":116203300_1" function="internal">
        <lane id=":116203300_1_0" index="0" disallow="tram rail_urban rail rail_electric rail_fast ship" speed="8.04" length="4.13" shape="373.88,144.74 370.01,144.50 369.78,144.38"/>
    </edge>
    <edge id=":116203300_2" function="internal">
        <lane id=":116203300_2_0" index="0" disallow="tram rail_urban rail rail_electric rail_fast ship" speed="3.65" length="1.44" shape="373.88,144.74 372.62,144.04"/>
    </edge>
    <edge id=":116203300_9" function="internal">
        <lane id=":116203300_9_0" index="0" disallow="tram rail_urban rail rail_electric rail_fast ship" speed="8.04" length="10.14" shape="369.78,144.38 367.13,143.06 365.25,140.42 364.35,136.60"/>
    </edge>
    <edge id=":116203300_10" function="internal">
        <lane id=":116203300_10_0" index="0" disallow="tram rail_urban rail rail_electric rail_fast ship" speed="3.65" length="3.23" shape="372.62,144.04 372.15,143.27 372.49,142.44 373.62,141.55"/>
    </edge>
    <edge id=":116203300_3" function="internal">
        <lane id=":116203300_3_0" index="0" disallow="tram rail_urban rail rail_electric rail_fast ship" speed="6.56" length="9.13" shape="367.54,136.31 368.11,138.77 369.31,140.47 371.15,141.39 373.62,141.55"/>
    </edge>
    <edge id=":116203300_4" function="internal">
        <lane id=":116203300_4_0" index="0" disallow="tram rail_urban rail rail_electric rail_fast ship" speed="7.95" length="14.31" shape="367.54,136.31 367.33,140.24 365.90,143.13 363.26,144.96 359.40,145.75"/>
    </edge>
    <edge id=":116203300_5" function="internal">
        <lane id=":116203300_5_0" index="0" disallow="tram rail_urban rail rail_electric rail_fast ship" speed="3.65" length="1.44" shape="367.54,136.31 366.85,137.58"/>
    </edge>
    <edge id=":116203300_11" function="internal">
        <lane id=":116203300_11_0" index="0" disallow="tram rail_urban rail rail_electric rail_fast ship" speed="3.65" length="3.23" shape="366.85,137.58 366.09,138.05 365.26,137.72 364.35,136.60"/>
    </edge>
    <edge id=":116203300_6" function="internal">
        <lane id=":116203300_6_0" index="0" disallow="tram rail_urban rail rail_electric rail_fast ship" speed="6.44" length="9.03" shape="359.22,142.55 361.65,142.06 363.32,140.90 364.22,139.08 364.35,136.60"/>
    </edge>
    <edge id=":116203300_7" function="internal">
        <lane id=":116203300_7_0" index="0" disallow="tram rail_urban rail rail_electric rail_fast ship" speed="13.89" length="14.44" shape="359.22,142.55 373.62,141.55"/>
    </edge>
    <edge id=":116203300_8" function="internal">
        <lane id=":116203300_8_0" index="0" disallow="tram rail_urban rail rail_electric rail_fast ship" speed="3.65" length="1.44" shape="359.22,142.55 360.46,143.28"/>
    </edge>
    <edge id=":116203300_12" function="internal">
        <lane id=":116203300_12_0" index="0" disallow="tram rail_urban rail rail_electric rail_fast ship" speed="3.65" length="3.23" shape="360.46,143.28 360.91,144.06 360.55,144.88 359.40,145.75"/>
    </edge>
    <edge id=":241789899_0" function="internal">
        <lane id=":241789899_0_0" index="0" disallow="tram rail_urban rail rail_electric rail_fast ship" speed="3.65" length="4.67" shape="326.95,317.15 326.57,318.54 325.94,319.17 325.05,319.04 323.91,318.16"/>
    </edge>
    <edge id=":2557662011_0" function="internal">
        <lane id=":2557662011_0_0" index="0" allow="pedestrian bicycle" speed="2.04" length="1.46" width="1.00" shape="415.82,526.21 415.81,526.66 415.66,526.90 415.39,526.93 414.98,526.74"/>
    </edge>
    <edge id=":267560994_0" function="internal">
        <lane id=":267560994_0_0" index="0" disallow="tram rail_urban rail rail_electric rail_fast ship" speed="3.65" length="4.67" shape="213.89,7.52 214.24,6.12 214.85,5.47 215.74,5.58 216.90,6.43"/>
    </edge>
    <edge id=":305333084_0" function="internal">
        <lane id=":305333084_0_0" index="0" disallow="tram rail_urban rail rail_electric rail_fast ship" speed="3.65" length="4.67" shape="366.62,1.19 368.05,1.07 368.86,1.45 369.05,2.32 368.60,3.70"/>
    </edge>
    <edge id=":323162906_0" function="internal">
        <lane id=":323162906_0_0" index="0" disallow="tram rail_urban rail rail_electric rail_fast ship" speed="3.65" length="4.67" shape="0.24,169.92 -1.07,169.31 -1.58,168.58 -1.30,167.73 -0.24,166.76"/>
    </edge>
    <edge id=":323188704_0" function="internal">
        <lane id=":323188704_0_0" index="0" disallow="tram rail_urban rail rail_electric rail_fast ship" speed="3.65" length="4.67" shape="494.02,131.57 495.27,132.29 495.72,133.07 495.37,133.89 494.22,134.76"/>
    </edge>
    <edge id=":7689374460_0" function="internal">
        <lane id=":7689374460_0_0" index="0" allow="pedestrian bicycle" speed="2.04" length="1.46" width="1.00" shape="223.56,0.16 223.67,-0.27 223.87,-0.47 224.15,-0.44 224.51,-0.16"/>
    </edge>
    <edge id=":cluster_115438903_7689374459_0" function="internal">
        <lane id=":cluster_115438903_7689374459_0_0" index="0" allow="pedestrian bicycle" speed="3.57" length="4.16" shape="277.36,156.43 273.44,157.81"/>
    </edge>
    <edge id=":cluster_115438903_7689374459_1" function="internal">
        <lane id=":cluster_115438903_7689374459_1_0" index="0" allow="pedestrian bicycle" speed="10.48" length="20.29" shape="277.36,156.43 275.43,153.97 271.67,152.36 266.07,151.59 258.64,151.65"/>
    </edge>
    <edge id=":cluster_115438903_7689374459_2" function="internal">
        <lane id=":cluster_115438903_7689374459_2_0" index="0" allow="pedestrian bicycle" speed="11.11" length="20.64" shape="277.36,156.43 274.58,152.89 269.95,149.37 265.31,145.85 262.51,142.32"/>
    </edge>
    <edge id=":cluster_115438903_7689374459_3" function="internal">
        <lane id=":cluster_115438903_7689374459_3_0" index="0" allow="pedestrian bicycle" speed="8.33" length="18.31" width="1.00" shape="277.36,156.43 271.35,139.13"/>
    </edge>
    <edge id=":cluster_115438903_7689374459_4" function="internal">
        <lane id=":cluster_115438903_7689374459_4_0" index="0" allow="pedestrian bicycle" speed="6.61" length="5.35" shape="277.36,156.43 276.42,152.51 276.57,151.19"/>
    </edge>
    <edge id=":cluster_115438903_7689374459_5" function="internal">
        <lane id=":cluster_115438903_7689374459_5_0" index="0" allow="pedestrian bicycle" speed="2.04" length="1.25" width="1.00" shape="277.36,156.43 277.47,155.99 277.66,155.79 277.94,155.82 278.13,155.97"/>
    </edge>
    <edge id=":cluster_115438903_7689374459_36" function="internal">
        <lane id=":cluster_115438903_7689374459_36_0" index="0" allow="pedestrian bicycle" speed="3.57" length="1.77" shape="273.44,157.81 271.76,158.39"/>
    </edge>
    <edge id=":cluster_115438903_7689374459_37" function="internal">
        <lane id=":cluster_115438903_7689374459_37_0" index="0" allow="pedestrian bicycle" speed="6.61" length="6.86" shape="276.57,151.19 276.75,149.66 278.32,147.86 281.16,147.13"/>
    </edge>
    <edge id=":cluster_115438903_7689374459_38" function="internal">
        <lane id=":cluster_115438903_7689374459_38_0" index="0" allow="pedestrian bicycle" speed="2.04" length="0.21" width="1.00" shape="278.13,155.97 278.30,156.09"/>
    </edge>
    <edge id=":cluster_115438903_7689374459_6" function="internal">
        <lane id=":cluster_115438903_7689374459_6_0" index="0" allow="pedestrian bicycle" speed="5.67" length="8.01" width="1.00" shape="281.35,150.32 279.29,150.79 278.10,151.91 277.77,153.68 278.30,156.09"/>
    </edge>
    <edge id=":cluster_115438903_7689374459_7" function="internal">
        <lane id=":cluster_115438903_7689374459_7_0" index="0" disallow="tram rail_urban rail rail_electric rail_fast ship" speed="7.49" length="15.08" shape="281.35,150.32 276.14,151.10 272.81,152.70 271.35,155.13 271.76,158.39"/>
    </edge>
    <edge id=":cluster_115438903_7689374459_8" function="internal">
        <lane id=":cluster_115438903_7689374459_8_0" index="0" disallow="tram rail_urban rail rail_electric rail_fast ship" speed="13.89" length="22.74" shape="281.35,150.32 258.64,151.65"/>
    </edge>
    <edge id=":cluster_115438903_7689374459_9" function="internal">
        <lane id=":cluster_115438903_7689374459_9_0" index="0" disallow="tram rail_urban rail rail_electric rail_fast ship" speed="11.07" length="7.41" shape="281.35,150.32 274.31,150.17 273.94,150.08"/>
    </edge>
    <edge id=":cluster_115438903_7689374459_10" function="internal">
        <lane id=":cluster_115438903_7689374459_10_0" index="0" allow="pedestrian bicycle" speed="9.45" length="2.79" width="1.00" shape="281.35,150.32 278.60,149.78"/>
    </edge>
    <edge id=":cluster_115438903_7689374459_11" function="internal">
        <lane id=":cluster_115438903_7689374459_11_0" index="0" disallow="tram rail_urban rail rail_electric rail_fast ship" speed="3.65" length="1.44" shape="281.35,150.32 280.10,149.60"/>
    </edge>
    <edge id=":cluster_115438903_7689374459_39" function="internal">
        <lane id=":cluster_115438903_7689374459_39_0" index="0" disallow="tram rail_urban rail rail_electric rail_fast ship" speed="11.07" length="14.53" shape="273.94,150.08 268.82,148.78 264.89,146.17 262.51,142.32"/>
    </edge>
    <edge id=":cluster_115438903_7689374459_40" function="internal">
        <lane id=":cluster_115438903_7689374459_40_0" index="0" allow="pedestrian bicycle" speed="9.45" length="13.19" width="1.00" shape="278.60,149.78 278.46,149.76 275.84,147.70 273.47,144.16 271.35,139.13"/>
    </edge>
    <edge id=":cluster_115438903_7689374459_41" function="internal">
        <lane id=":cluster_115438903_7689374459_41_0" index="0" disallow="tram rail_urban rail rail_electric rail_fast ship" speed="3.65" length="3.23" shape="280.10,149.60 279.66,148.82 280.01,148.00 281.16,147.13"/>
    </edge>
    <edge id=":cluster_115438903_7689374459_12" function="internal">
        <lane id=":cluster_115438903_7689374459_12_0" index="0" allow="pedestrian bicycle" speed="8.42" length="13.09" shape="272.30,138.79 273.97,142.57 276.00,145.22 278.40,146.74 281.16,147.13"/>
    </edge>
    <edge id=":cluster_115438903_7689374459_13" function="internal">
        <lane id=":cluster_115438903_7689374459_13_0" index="0" allow="pedestrian bicycle" speed="8.33" length="18.32" width="1.00" shape="272.30,138.79 278.30,156.09"/>
    </edge>
    <edge id=":cluster_115438903_7689374459_14" function="internal">
        <lane id=":cluster_115438903_7689374459_14_0" index="0" allow="pedestrian bicycle" speed="11.11" length="19.71" shape="272.30,138.79 272.66,143.19 271.99,148.61 271.35,154.02 271.76,158.39"/>
    </edge>
    <edge id=":cluster_115438903_7689374459_15" function="internal">
        <lane id=":cluster_115438903_7689374459_15_0" index="0" allow="pedestrian bicycle" speed="8.96" length="4.82" shape="272.30,138.79 272.91,143.58"/>
    </edge>
    <edge id=":cluster_115438903_7689374459_16" function="internal">
        <lane id=":cluster_115438903_7689374459_16_0" index="0" allow="pedestrian bicycle" speed="4.62" length="0.51" shape="272.30,138.79 271.82,138.96"/>
    </edge>
    <edge id=":cluster_115438903_7689374459_17" function="internal">
        <lane id=":cluster_115438903_7689374459_17_0" index="0" allow="pedestrian bicycle" speed="2.04" length="1.26" width="1.00" shape="272.30,138.79 272.19,139.23 271.99,139.43 271.72,139.40 271.52,139.25"/>
    </edge>
    <edge id=":cluster_115438903_7689374459_42" function="internal">
        <lane id=":cluster_115438903_7689374459_42_0" index="0" allow="pedestrian bicycle" speed="8.96" length="17.86" shape="272.91,143.58 272.97,144.03 270.92,147.92 266.14,150.46 258.64,151.65"/>
    </edge>
    <edge id=":cluster_115438903_7689374459_43" function="internal">
        <lane id=":cluster_115438903_7689374459_43_0" index="0" allow="pedestrian bicycle" speed="4.62" length="9.90" shape="271.82,138.96 262.51,142.32"/>
    </edge>
    <edge id=":cluster_115438903_7689374459_44" function="internal">
        <lane id=":cluster_115438903_7689374459_44_0" index="0" allow="pedestrian bicycle" speed="2.04" length="0.20" width="1.00" shape="271.52,139.25 271.35,139.13"/>
    </edge>
    <edge id=":cluster_115438903_7689374459_18" function="internal">
        <lane id=":cluster_115438903_7689374459_18_0" index="0" allow="pedestrian bicycle" speed="4.04" length="6.21" width="1.00" shape="265.52,141.24 271.35,139.13"/>
    </edge>
    <edge id=":cluster_115438903_7689374459_19" function="internal">
        <lane id=":cluster_115438903_7689374459_19_0" index="0" disallow="tram rail_urban rail rail_electric rail_fast ship" speed="10.02" length="17.84" shape="265.52,141.24 267.40,144.11 270.63,146.04 275.22,147.05 281.16,147.13"/>
    </edge>
    <edge id=":cluster_115438903_7689374459_20" function="internal">
        <lane id=":cluster_115438903_7689374459_20_0" index="0" allow="pedestrian bicycle" speed="11.11" length="19.71" width="1.00" shape="265.52,141.24 268.00,144.88 271.92,148.66 275.84,152.44 278.30,156.09"/>
    </edge>
    <edge id=":cluster_115438903_7689374459_21" function="internal">
        <lane id=":cluster_115438903_7689374459_21_0" index="0" disallow="tram rail_urban rail rail_electric rail_fast ship" speed="13.89" length="18.26" shape="265.52,141.24 271.76,158.39"/>
    </edge>
    <edge id=":cluster_115438903_7689374459_22" function="internal">
        <lane id=":cluster_115438903_7689374459_22_0" index="0" disallow="tram rail_urban rail rail_electric rail_fast ship" speed="7.58" length="4.42" shape="265.52,141.24 266.41,145.57"/>
    </edge>
    <edge id=":cluster_115438903_7689374459_23" function="internal">
        <lane id=":cluster_115438903_7689374459_23_0" index="0" disallow="tram rail_urban rail rail_electric rail_fast ship" speed="3.65" length="1.44" shape="265.52,141.24 265.17,142.64"/>
    </edge>
    <edge id=":cluster_115438903_7689374459_45" function="internal">
        <lane id=":cluster_115438903_7689374459_45_0" index="0" disallow="tram rail_urban rail rail_electric rail_fast ship" speed="7.58" length="11.00" shape="266.41,145.57 265.57,148.75 262.98,150.77 258.64,151.65"/>
    </edge>
    <edge id=":cluster_115438903_7689374459_46" function="internal">
        <lane id=":cluster_115438903_7689374459_46_0" index="0" disallow="tram rail_urban rail rail_electric rail_fast ship" speed="3.65" length="3.23" shape="265.17,142.64 264.55,143.28 263.67,143.18 262.51,142.32"/>
    </edge>
    <edge id=":cluster_115438903_7689374459_24" function="internal">
        <lane id=":cluster_115438903_7689374459_24_0" index="0" disallow="tram rail_urban rail rail_electric rail_fast ship" speed="5.97" length="9.08" shape="258.46,148.46 261.01,147.94 262.54,146.75 263.03,144.87 262.51,142.32"/>
    </edge>
    <edge id=":cluster_115438903_7689374459_25" function="internal">
        <lane id=":cluster_115438903_7689374459_25_0" index="0" allow="pedestrian bicycle" speed="8.35" length="18.78" width="1.00" shape="258.46,148.46 265.18,147.53 269.58,145.67 271.63,142.87 271.35,139.13"/>
    </edge>
    <edge id=":cluster_115438903_7689374459_26" function="internal">
        <lane id=":cluster_115438903_7689374459_26_0" index="0" disallow="tram rail_urban rail rail_electric rail_fast ship" speed="13.89" length="22.74" shape="258.46,148.46 281.16,147.13"/>
    </edge>
    <edge id=":cluster_115438903_7689374459_27" function="internal">
        <lane id=":cluster_115438903_7689374459_27_0" index="0" allow="pedestrian bicycle" speed="11.11" length="8.03" width="1.00" shape="258.46,148.46 266.00,148.57 266.47,148.67"/>
    </edge>
    <edge id=":cluster_115438903_7689374459_28" function="internal">
        <lane id=":cluster_115438903_7689374459_28_0" index="0" disallow="tram rail_urban rail rail_electric rail_fast ship" speed="10.08" length="4.40" shape="258.46,148.46 262.84,148.87"/>
    </edge>
    <edge id=":cluster_115438903_7689374459_29" function="internal">
        <lane id=":cluster_115438903_7689374459_29_0" index="0" disallow="tram rail_urban rail rail_electric rail_fast ship" speed="3.65" length="1.44" shape="258.46,148.46 259.70,149.19"/>
    </edge>
    <edge id=":cluster_115438903_7689374459_47" function="internal">
        <lane id=":cluster_115438903_7689374459_47_0" index="0" allow="pedestrian bicycle" speed="11.11" length="14.70" width="1.00" shape="266.47,148.67 271.83,149.88 275.93,152.39 278.30,156.09"/>
    </edge>
    <edge id=":cluster_115438903_7689374459_48" function="internal">
        <lane id=":cluster_115438903_7689374459_48_0" index="0" disallow="tram rail_urban rail rail_electric rail_fast ship" speed="10.08" length="13.53" shape="262.84,148.87 266.51,150.67 269.49,153.84 271.76,158.39"/>
    </edge>
    <edge id=":cluster_115438903_7689374459_49" function="internal">
        <lane id=":cluster_115438903_7689374459_49_0" index="0" disallow="tram rail_urban rail rail_electric rail_fast ship" speed="3.65" length="3.23" shape="259.70,149.19 260.15,149.96 259.79,150.78 258.64,151.65"/>
    </edge>
    <edge id=":cluster_115438903_7689374459_30" function="internal">
        <lane id=":cluster_115438903_7689374459_30_0" index="0" disallow="tram rail_urban rail rail_electric rail_fast ship" speed="8.89" length="13.77" shape="268.75,159.46 266.98,155.89 264.71,153.40 261.93,151.99 258.64,151.65"/>
    </edge>
    <edge id=":cluster_115438903_7689374459_31" function="internal">
        <lane id=":cluster_115438903_7689374459_31_0" index="0" disallow="tram rail_urban rail rail_electric rail_fast ship" speed="13.89" length="18.23" shape="268.75,159.46 262.51,142.32"/>
    </edge>
    <edge id=":cluster_115438903_7689374459_32" function="internal">
        <lane id=":cluster_115438903_7689374459_32_0" index="0" allow="pedestrian bicycle" speed="11.11" length="20.65" width="1.00" shape="268.75,159.46 268.66,154.97 270.01,149.31 271.39,143.64 271.35,139.13"/>
    </edge>
    <edge id=":cluster_115438903_7689374459_33" function="internal">
        <lane id=":cluster_115438903_7689374459_33_0" index="0" disallow="tram rail_urban rail rail_electric rail_fast ship" speed="8.81" length="3.72" shape="268.75,159.46 268.17,155.78"/>
    </edge>
    <edge id=":cluster_115438903_7689374459_34" function="internal">
        <lane id=":cluster_115438903_7689374459_34_0" index="0" allow="pedestrian bicycle" speed="4.88" length="10.13" width="1.00" shape="268.75,159.46 278.30,156.09"/>
    </edge>
    <edge id=":cluster_115438903_7689374459_35" function="internal">
        <lane id=":cluster_115438903_7689374459_35_0" index="0" disallow="tram rail_urban rail rail_electric rail_fast ship" speed="3.65" length="1.44" shape="268.75,159.46 269.10,158.06"/>
    </edge>
    <edge id=":cluster_115438903_7689374459_50" function="internal">
        <lane id=":cluster_115438903_7689374459_50_0" index="0" disallow="tram rail_urban rail rail_electric rail_fast ship" speed="8.81" length="17.63" shape="268.17,155.78 267.96,154.43 269.76,150.70 274.16,148.26 281.16,147.13"/>
    </edge>
    <edge id=":cluster_115438903_7689374459_51" function="internal">
        <lane id=":cluster_115438903_7689374459_51_0" index="0" disallow="tram rail_urban rail rail_electric rail_fast ship" speed="3.65" length="3.23" shape="269.10,158.06 269.72,157.42 270.61,157.53 271.76,158.39"/>
    </edge>

    <edge id="-12718292#1" from="323188704" to="116203300" priority="10" type="highway.tertiary" shape="494.12,133.17 490.52,133.39 485.67,134.09 436.62,138.06 366.60,143.72">
        <lane id="-12718292#1_0" index="0" disallow="tram rail_urban rail rail_electric rail_fast ship" speed="13.89" length="120.77" shape="494.22,134.76 490.68,134.99 485.85,135.68 436.74,139.65 373.88,144.74"/>
    </edge>
    <edge id="-25764939#1" from="116203300" to="305333084" priority="3" type="highway.residential" shape="366.60,143.72 365.61,132.68 362.34,96.23 355.91,24.51 359.35,8.98 367.61,2.44">
        <lane id="-25764939#1_0" index="0" disallow="tram rail_urban rail rail_electric rail_fast ship" speed="13.89" length="140.47" shape="364.35,136.60 364.02,132.82 360.74,96.37 354.29,24.41 357.91,8.07 366.62,1.19"/>
    </edge>
    <edge id="-29307769#1" from="cluster_115438903_7689374459" to="323162906" priority="11" type="highway.secondary" shape="266.82,149.57 226.03,151.94 188.22,154.15 173.47,155.01 159.05,155.85 128.23,156.96 27.69,164.21 0.00,168.34">
        <lane id="-29307769#1_0" index="0" disallow="tram rail_urban rail rail_electric rail_fast ship" speed="13.89" length="259.16" shape="258.64,151.65 226.12,153.54 188.31,155.75 173.56,156.61 159.12,157.45 128.32,158.56 27.87,165.80 0.24,169.92"/>
        <param key="ref" value="L162"/>
    </edge>
    <edge id="-319004694" from="267560994" to="cluster_115438903_7689374459" priority="11" type="highway.secondary" shape="215.40,6.98 239.18,72.93 266.82,149.57">
        <lane id="-319004694_0" index="0" disallow="tram rail_urban rail rail_electric rail_fast ship" speed="13.89" length="143.30" shape="216.90,6.43 240.68,72.39 265.52,141.24"/>
        <param key="ref" value="L100"/>
    </edge>
    <edge id="-480933881#2" from="116203300" to="cluster_115438903_7689374459" priority="10" type="highway.tertiary" shape="366.60,143.72 358.44,144.20 275.30,149.08">
        <lane id="-480933881#2_0" index="0" disallow="tram rail_urban rail rail_electric rail_fast ship" speed="13.89" length="78.19" shape="359.40,145.75 358.54,145.80 281.35,150.32"/>
    </edge>
    <edge id="-652850699" from="cluster_115438903_7689374459" to="241789899" priority="11" type="highway.secondary" shape="266.82,149.57 295.51,227.69 325.43,317.65">
        <lane id="-652850699_0" index="0" disallow="tram rail_urban rail rail_electric rail_fast ship" speed="13.89" length="168.09" shape="271.76,158.39 297.02,227.16 326.95,317.15"/>
        <param key="ref" value="L100"/>
    </edge>
    <edge id="-823597453#0" from="cluster_115438903_7689374459" to="2557662011" priority="1" type="highway.cycleway" shape="275.30,149.08 334.31,316.79 358.61,387.77 379.65,448.62 403.03,506.66 415.40,526.48">
        <lane id="-823597453#0_0" index="0" allow="pedestrian bicycle" speed="8.33" length="395.41" width="1.00" shape="278.30,156.09 334.78,316.62 359.09,387.61 380.12,448.45 403.47,506.43 415.82,526.21"/>
    </edge>
    <edge id="-823597453#1" from="7689374460" to="cluster_115438903_7689374459" priority="1" type="highway.cycleway" shape="224.03,0.00 275.30,149.08">
        <lane id="-823597453#1_0" index="0" allow="pedestrian bicycle" speed="8.33" length="146.94" width="1.00" shape="224.51,-0.16 272.30,138.79"/>
    </edge>
    <edge id="12718292#0" from="116203300" to="323188704" priority="10" type="highway.tertiary" shape="366.60,143.72 436.62,138.06 485.67,134.09 490.52,133.39 494.12,133.17">
        <lane id="12718292#0_0" index="0" disallow="tram rail_urban rail rail_electric rail_fast ship" speed="13.89" length="120.83" shape="373.62,141.55 436.49,136.46 485.49,132.50 490.35,131.80 494.02,131.57"/>
    </edge>
    <edge id="25764939#0" from="305333084" to="116203300" priority="3" type="highway.residential" shape="367.61,2.44 359.35,8.98 355.91,24.51 362.34,96.23 365.61,132.68 366.60,143.72">
        <lane id="25764939#0_0" index="0" disallow="tram rail_urban rail rail_electric rail_fast ship" speed="13.89" length="137.20" shape="368.60,3.70 360.79,9.88 357.52,24.61 363.93,96.08 367.20,132.54 367.54,136.31"/>
    </edge>
    <edge id="29307769#0" from="323162906" to="cluster_115438903_7689374459" priority="11" type="highway.secondary" shape="0.00,168.34 27.69,164.21 128.23,156.96 159.05,155.85 173.47,155.01 188.22,154.15 226.03,151.94 266.82,149.57">
        <lane id="29307769#0_0" index="0" disallow="tram rail_urban rail rail_electric rail_fast ship" speed="13.89" length="259.45" shape="-0.24,166.76 27.52,162.61 128.14,155.36 158.97,154.25 173.38,153.41 188.12,152.55 225.94,150.35 258.46,148.46"/>
        <param key="ref" value="L162"/>
    </edge>