<?xml version="1.0" encoding="UTF-8"?>

<!-- generated on 2022-03-05 19:30:16 by Eclipse SUMO netconvert Version 1.12.0
<configuration xmlns:xsi="http://www.w3.org/2001/XMLSchema-instance" xsi:noNamespaceSchemaLocation="http://sumo.dlr.de/xsd/netconvertConfiguration.xsd">

    <input>
        <osm-files value="map.osm"/>
    </input>

    <output>
        <output-file value="map.net.xml"/>
    </output>

    <projection>
        <proj.utm value="true"/>
    </projection>

    <processing>
        <geometry.remove value="true"/>
        <roundabouts.guess value="true"/>
    </processing>

    <tls_building>
        <tls.discard-simple value="true"/>
        <tls.join value="true"/>
        <tls.guess-signals value="true"/>
    </tls_building>

    <ramp_guessing>
        <ramps.guess value="true"/>
    </ramp_guessing>

    <junctions>
        <junctions.join value="true"/>
    </junctions>

    <report>
        <aggregate-warnings value="5"/>
    </report>

</configuration>
-->

<net version="1.9" junctionCornerDetail="5" limitTurnSpeed="5.50" xmlns:xsi="http://www.w3.org/2001/XMLSchema-instance" xsi:noNamespaceSchemaLocation="http://sumo.dlr.de/xsd/net_file.xsd">

    <location netOffset="-546870.62,-5338544.62" convBoundary="0.00,0.00,383.86,935.24" origBoundary="15.630803,48.186997,15.841150,48.373044" projParameter="+proj=utm +zone=33 +ellps=WGS84 +datum=WGS84 +units=m +no_defs"/>

    <type id="highway.bridleway" priority="1" numLanes="1" speed="2.78" allow="pedestrian" oneway="1" width="2.00"/>
    <type id="highway.bus_guideway" priority="1" numLanes="1" speed="27.78" allow="bus" oneway="1"/>
    <type id="highway.cycleway" priority="1" numLanes="1" speed="8.33" allow="bicycle" oneway="0" width="1.00"/>
    <type id="highway.footway" priority="1" numLanes="1" speed="2.78" allow="pedestrian" oneway="1" width="2.00"/>
    <type id="highway.ford" priority="1" numLanes="1" speed="2.78" allow="army" oneway="0"/>
    <type id="highway.living_street" priority="2" numLanes="1" speed="2.78" disallow="tram rail_urban rail rail_electric rail_fast ship" oneway="0"/>
    <type id="highway.motorway" priority="14" numLanes="2" speed="39.44" allow="private emergency authority army vip passenger hov taxi bus coach delivery truck trailer motorcycle evehicle custom1 custom2" oneway="1"/>
    <type id="highway.motorway_link" priority="9" numLanes="1" speed="22.22" allow="private emergency authority army vip passenger hov taxi bus coach delivery truck trailer motorcycle evehicle custom1 custom2" oneway="1"/>
    <type id="highway.path" priority="1" numLanes="1" speed="2.78" allow="pedestrian bicycle" oneway="0" width="2.00"/>
    <type id="highway.pedestrian" priority="1" numLanes="1" speed="2.78" allow="pedestrian" oneway="1" width="2.00"/>
    <type id="highway.primary" priority="12" numLanes="2" speed="27.78" disallow="tram rail_urban rail rail_electric rail_fast ship" oneway="0"/>
    <type id="highway.primary_link" priority="7" numLanes="1" speed="22.22" disallow="tram rail_urban rail rail_electric rail_fast ship" oneway="0"/>
    <type id="highway.raceway" priority="15" numLanes="2" speed="83.33" allow="vip" oneway="0"/>
    <type id="highway.residential" priority="3" numLanes="1" speed="13.89" disallow="tram rail_urban rail rail_electric rail_fast ship" oneway="0"/>
    <type id="highway.secondary" priority="11" numLanes="1" speed="27.78" disallow="tram rail_urban rail rail_electric rail_fast ship" oneway="0"/>
    <type id="highway.secondary_link" priority="6" numLanes="1" speed="22.22" disallow="tram rail_urban rail rail_electric rail_fast ship" oneway="0"/>
    <type id="highway.service" priority="1" numLanes="1" speed="5.56" allow="pedestrian delivery bicycle" oneway="0"/>
    <type id="highway.stairs" priority="1" numLanes="1" speed="1.39" allow="pedestrian" oneway="1" width="2.00"/>
    <type id="highway.step" priority="1" numLanes="1" speed="1.39" allow="pedestrian" oneway="1" width="2.00"/>
    <type id="highway.steps" priority="1" numLanes="1" speed="1.39" allow="pedestrian" oneway="1" width="2.00"/>
    <type id="highway.tertiary" priority="10" numLanes="1" speed="22.22" disallow="tram rail_urban rail rail_electric rail_fast ship" oneway="0"/>
    <type id="highway.tertiary_link" priority="5" numLanes="1" speed="22.22" disallow="tram rail_urban rail rail_electric rail_fast ship" oneway="0"/>
    <type id="highway.track" priority="1" numLanes="1" speed="5.56" allow="pedestrian motorcycle moped bicycle" oneway="0"/>
    <type id="highway.trunk" priority="13" numLanes="2" speed="27.78" disallow="pedestrian bicycle tram rail_urban rail rail_electric rail_fast ship" oneway="0"/>
    <type id="highway.trunk_link" priority="8" numLanes="1" speed="22.22" disallow="pedestrian bicycle tram rail_urban rail rail_electric rail_fast ship" oneway="0"/>
    <type id="highway.unclassified" priority="4" numLanes="1" speed="13.89" disallow="tram rail_urban rail rail_electric rail_fast ship" oneway="0"/>
    <type id="highway.unsurfaced" priority="1" numLanes="1" speed="8.33" disallow="tram rail_urban rail rail_electric rail_fast ship" oneway="0"/>
    <type id="railway.highspeed" priority="21" numLanes="1" speed="69.44" allow="rail_fast" oneway="1"/>
    <type id="railway.light_rail" priority="19" numLanes="1" speed="27.78" allow="rail_urban" oneway="1"/>
    <type id="railway.preserved" priority="16" numLanes="1" speed="27.78" allow="rail" oneway="1"/>
    <type id="railway.rail" priority="20" numLanes="1" speed="44.44" allow="rail" oneway="1"/>
    <type id="railway.subway" priority="18" numLanes="1" speed="27.78" allow="rail_urban" oneway="1"/>
    <type id="railway.tram" priority="17" numLanes="1" speed="13.89" allow="tram" oneway="1"/>

    <edge id=":116203247_0" function="internal">
        <lane id=":116203247_0_0" index="0" disallow="tram rail_urban rail rail_electric rail_fast ship" speed="13.89" length="8.00" shape="250.66,634.83 242.80,636.36"/>
        <lane id=":116203247_0_1" index="1" disallow="tram rail_urban rail rail_electric rail_fast ship" speed="13.89" length="8.00" shape="250.04,631.69 242.19,633.22"/>
    </edge>
    <edge id=":116203247_2" function="internal">
        <lane id=":116203247_2_0" index="0" disallow="tram rail_urban rail rail_electric rail_fast ship" speed="13.89" length="8.80" shape="240.97,626.94 243.48,626.96 245.20,627.75 246.92,628.53 249.43,628.55"/>
    </edge>
    <edge id=":208920105_0" function="internal">
        <lane id=":208920105_0_0" index="0" disallow="tram rail_urban rail rail_electric rail_fast ship" speed="3.65" length="4.67" shape="185.87,845.20 185.53,846.61 184.92,847.26 184.03,847.16 182.86,846.31"/>
    </edge>
    <edge id=":241784715_0" function="internal">
        <lane id=":241784715_0_0" index="0" disallow="tram rail_urban rail rail_electric rail_fast ship" speed="13.89" length="14.34" shape="133.52,712.52 128.48,699.10"/>
    </edge>
    <edge id=":241784715_1" function="internal">
        <lane id=":241784715_1_0" index="0" disallow="tram rail_urban rail rail_electric rail_fast ship" speed="7.90" length="3.98" shape="133.52,712.52 132.69,708.63"/>
    </edge>
    <edge id=":241784715_2" function="internal">
        <lane id=":241784715_2_0" index="0" disallow="tram rail_urban rail rail_electric rail_fast ship" speed="3.65" length="1.44" shape="133.52,712.52 133.86,711.12"/>
    </edge>
    <edge id=":241784715_9" function="internal">
        <lane id=":241784715_9_0" index="0" disallow="tram rail_urban rail rail_electric rail_fast ship" speed="7.90" length="10.43" shape="132.69,708.63 133.34,705.47 135.47,703.05 139.08,701.36"/>
    </edge>
    <edge id=":241784715_10" function="internal">
        <lane id=":241784715_10_0" index="0" disallow="tram rail_urban rail rail_electric rail_fast ship" speed="3.65" length="3.23" shape="133.86,711.12 134.47,710.46 135.36,710.56 136.53,711.41"/>
    </edge>
    <edge id=":241784715_3" function="internal">
        <lane id=":241784715_3_0" index="0" disallow="tram rail_urban rail rail_electric rail_fast ship" speed="6.38" length="9.03" shape="140.01,704.42 137.75,705.48 136.41,707.00 136.01,708.97 136.53,711.41"/>
    </edge>
    <edge id=":241784715_4" function="internal">
        <lane id=":241784715_4_0" index="0" disallow="tram rail_urban rail rail_electric rail_fast ship" speed="8.23" length="14.26" shape="140.01,704.42 136.10,705.06 132.88,704.38 130.34,702.40 128.48,699.10"/>
    </edge>
    <edge id=":241784715_5" function="internal">
        <lane id=":241784715_5_0" index="0" disallow="tram rail_urban rail rail_electric rail_fast ship" speed="3.65" length="4.67" shape="140.01,704.42 138.63,704.01 138.01,703.36 138.16,702.47 139.08,701.36"/>
    </edge>
    <edge id=":241784715_6" function="internal">
        <lane id=":241784715_6_0" index="0" disallow="tram rail_urban rail rail_electric rail_fast ship" speed="6.79" length="9.37" shape="131.46,697.95 132.68,700.09 134.35,701.37 136.49,701.79 139.08,701.36"/>
    </edge>
    <edge id=":241784715_7" function="internal">
        <lane id=":241784715_7_0" index="0" disallow="tram rail_urban rail rail_electric rail_fast ship" speed="13.89" length="14.38" shape="131.46,697.95 136.53,711.41"/>
    </edge>
    <edge id=":241784715_8" function="internal">
        <lane id=":241784715_8_0" index="0" disallow="tram rail_urban rail rail_electric rail_fast ship" speed="3.65" length="1.44" shape="131.46,697.95 131.15,699.36"/>
    </edge>
    <edge id=":241784715_11" function="internal">
        <lane id=":241784715_11_0" index="0" disallow="tram rail_urban rail rail_electric rail_fast ship" speed="3.65" length="3.23" shape="131.15,699.36 130.54,700.02 129.65,699.93 128.48,699.10"/>
    </edge>
    <edge id=":247947684_0" function="internal">
        <lane id=":247947684_0_0" index="0" disallow="tram rail_urban rail rail_electric rail_fast ship" speed="3.65" length="4.67" shape="314.89,934.63 314.61,936.04 314.02,936.72 313.13,936.65 311.93,935.84"/>
    </edge>
    <edge id=":27376828_0" function="internal">
        <lane id=":27376828_0_0" index="0" disallow="tram rail_urban rail rail_electric rail_fast ship" speed="3.65" length="4.67" shape="-1.42,445.32 -1.26,443.89 -0.73,443.17 0.16,443.16 1.42,443.86"/>
    </edge>
    <edge id=":2821318526_0" function="internal">
        <lane id=":2821318526_0_0" index="0" allow="bicycle" speed="11.11" length="8.43" shape="105.19,664.74 102.69,664.93 100.98,665.13 99.31,665.53 96.96,666.36"/>
    </edge>
    <edge id=":2821318526_1" function="internal">
        <lane id=":2821318526_1_0" index="0" allow="bicycle" speed="4.55" length="9.20" shape="105.19,664.74 102.93,664.03 101.80,662.09 101.99,659.86 103.74,658.29"/>
    </edge>
    <edge id=":2821318526_2" function="internal">
        <lane id=":2821318526_2_0" index="0" allow="bicycle" speed="5.68" length="12.66" width="1.00" shape="105.19,664.74 101.31,665.24 99.07,664.31 98.47,661.97 99.49,658.20"/>
    </edge>
    <edge id=":2821318526_3" function="internal">
        <lane id=":2821318526_3_0" index="0" disallow="tram rail_urban rail rail_electric rail_fast ship" speed="13.89" length="8.67" shape="104.77,662.49 96.57,665.33"/>
    </edge>
    <edge id=":2821318526_4" function="internal">
        <lane id=":2821318526_4_0" index="0" allow="bicycle" speed="6.17" length="10.16" width="1.00" shape="104.40,661.45 98.56,663.22 95.80,663.26 96.04,661.99"/>
    </edge>
    <edge id=":2821318526_7" function="internal">
        <lane id=":2821318526_7_0" index="0" allow="bicycle" speed="6.17" length="5.19" width="1.00" shape="96.04,661.99 96.11,661.59 99.49,658.20"/>
    </edge>
    <edge id=":2821318526_5" function="internal">
        <lane id=":2821318526_5_0" index="0" allow="bicycle" speed="11.11" length="5.47" width="1.00" shape="95.06,661.30 96.53,660.66 97.46,660.06 98.29,659.30 99.49,658.20"/>
    </edge>
    <edge id=":2821318526_6" function="internal">
        <lane id=":2821318526_6_0" index="0" disallow="tram rail_urban rail rail_electric rail_fast ship" speed="13.89" length="9.17" shape="95.45,662.33 104.11,659.33"/>
    </edge>
    <edge id=":2829424625_0" function="internal">
        <lane id=":2829424625_0_0" index="0" allow="bicycle" speed="8.33" length="0.72" width="1.00" shape="130.42,663.67 130.22,663.74 130.10,663.84 129.98,663.92 129.78,663.97"/>
    </edge>
    <edge id=":322266675_0" function="internal">
        <lane id=":322266675_0_0" index="0" disallow="tram rail_urban rail rail_electric rail_fast ship" speed="8.33" length="5.25" shape="181.19,601.61 181.31,606.86"/>
    </edge>
    <edge id=":322266675_1" function="internal">
        <lane id=":322266675_1_0" index="0" disallow="tram rail_urban rail rail_electric rail_fast ship" speed="8.33" length="5.09" shape="178.11,606.84 178.00,601.76"/>
    </edge>
    <edge id=":322266680_0" function="internal">
        <lane id=":322266680_0_0" index="0" disallow="tram rail_urban rail rail_electric rail_fast ship" speed="3.65" length="4.67" shape="163.47,322.37 164.20,321.13 164.98,320.69 165.80,321.04 166.66,322.20"/>
    </edge>
    <edge id=":322365386_0" function="internal">
        <lane id=":322365386_0_0" index="0" allow="pedestrian bicycle" speed="8.33" length="32.08" width="1.00" shape="280.67,682.20 274.93,650.64"/>
    </edge>
    <edge id=":322365386_1" function="internal">
        <lane id=":322365386_1_0" index="0" allow="pedestrian bicycle" speed="6.95" length="24.20" shape="280.67,682.20 279.98,675.84 279.17,666.30 278.63,658.09"/>
    </edge>
    <edge id=":322365386_2" function="internal">
        <lane id=":322365386_2_0" index="0" allow="pedestrian bicycle" speed="2.04" length="1.20" width="1.00" shape="280.67,682.20 280.86,681.80 281.09,681.64 281.36,681.72 281.49,681.87"/>
    </edge>
    <edge id=":322365386_9" function="internal">
        <lane id=":322365386_9_0" index="0" allow="pedestrian bicycle" speed="6.95" length="7.73" shape="278.63,658.09 278.54,656.76 278.37,650.37"/>
    </edge>
    <edge id=":322365386_10" function="internal">
        <lane id=":322365386_10_0" index="0" allow="pedestrian bicycle" speed="2.04" length="0.26" width="1.00" shape="281.49,681.87 281.66,682.06"/>
    </edge>
    <edge id=":322365386_3" function="internal">
        <lane id=":322365386_3_0" index="0" allow="pedestrian bicycle" speed="6.95" length="31.57" width="1.00" shape="281.57,650.50 281.39,656.84 281.27,666.30 281.31,675.74 281.66,682.06"/>
    </edge>
    <edge id=":322365386_4" function="internal">
        <lane id=":322365386_4_0" index="0" allow="pedestrian bicycle" speed="4.87" length="9.24" width="1.00" shape="281.57,650.50 280.57,652.58 278.48,653.30 276.27,652.66 274.93,650.64"/>
    </edge>
    <edge id=":322365386_5" function="internal">
        <lane id=":322365386_5_0" index="0" allow="pedestrian motorcycle moped bicycle" speed="3.65" length="4.67" shape="281.57,650.50 280.72,651.67 279.90,652.03 279.12,651.60 278.37,650.37"/>
    </edge>
    <edge id=":322365386_6" function="internal">
        <lane id=":322365386_6_0" index="0" allow="pedestrian bicycle" speed="4.78" length="10.29" shape="275.91,650.44 276.84,654.12 277.55,655.34 278.06,654.09 278.37,650.37"/>
    </edge>
    <edge id=":322365386_7" function="internal">
        <lane id=":322365386_7_0" index="0" allow="pedestrian bicycle" speed="8.33" length="32.14" width="1.00" shape="275.91,650.44 281.66,682.06"/>
    </edge>
    <edge id=":322365386_8" function="internal">
        <lane id=":322365386_8_0" index="0" allow="pedestrian bicycle" speed="2.04" length="1.28" width="1.00" shape="275.91,650.44 275.74,650.85 275.53,651.03 275.26,650.96 275.07,650.77"/>
    </edge>
    <edge id=":322365386_11" function="internal">
        <lane id=":322365386_11_0" index="0" allow="pedestrian bicycle" speed="2.04" length="0.18" width="1.00" shape="275.07,650.77 274.93,650.64"/>
    </edge>
    <edge id=":322365393_0" function="internal">
        <lane id=":322365393_0_0" index="0" allow="pedestrian bicycle" speed="2.04" length="1.46" width="1.00" shape="293.53,752.53 293.35,752.95 293.13,753.12 292.86,753.04 292.55,752.72"/>
    </edge>
    <edge id=":324697244_0" function="internal">
        <lane id=":324697244_0_0" index="0" allow="pedestrian bicycle" speed="2.04" length="1.46" width="1.00" shape="233.63,0.07 233.82,-0.33 234.05,-0.49 234.32,-0.41 234.62,-0.07"/>
    </edge>
    <edge id=":3537036339_0" function="internal">
        <lane id=":3537036339_0_0" index="0" allow="bicycle" speed="8.33" length="3.62" width="1.00" shape="124.23,645.22 127.80,644.62"/>
    </edge>
    <edge id=":5439824989_0" function="internal">
        <lane id=":5439824989_0_0" index="0" disallow="tram rail_urban rail rail_electric rail_fast ship" speed="3.65" length="4.67" shape="352.71,608.38 354.05,608.94 354.59,609.65 354.35,610.51 353.33,611.52"/>
    </edge>
    <edge id=":5440948703_0" function="internal">
        <lane id=":5440948703_0_0" index="0" allow="pedestrian delivery bicycle" speed="3.65" length="4.67" shape="60.11,545.58 61.55,545.57 62.33,546.01 62.45,546.90 61.90,548.23"/>
    </edge>
    <edge id=":5440948704_0" function="internal">
        <lane id=":5440948704_0_0" index="0" disallow="tram rail_urban rail rail_electric rail_fast ship" speed="13.89" length="9.69" shape="53.28,556.95 48.57,548.48"/>
        <lane id=":5440948704_0_1" index="1" disallow="tram rail_urban rail rail_electric rail_fast ship" speed="13.89" length="9.69" shape="56.08,555.39 51.37,546.92"/>
    </edge>
    <edge id=":5440948704_2" function="internal">
        <lane id=":5440948704_2_0" index="0" allow="pedestrian delivery bicycle" speed="7.52" length="2.87" shape="56.08,555.39 55.24,552.85 55.27,552.65"/>
    </edge>
    <edge id=":5440948704_8" function="internal">
        <lane id=":5440948704_8_0" index="0" allow="pedestrian delivery bicycle" speed="7.52" length="8.75" shape="55.27,552.65 55.61,550.38 57.18,548.00 59.95,545.69"/>
    </edge>
    <edge id=":5440948704_3" function="internal">
        <lane id=":5440948704_3_0" index="0" allow="pedestrian delivery bicycle" speed="5.92" length="6.81" shape="61.73,548.35 59.94,549.77 58.87,551.16 58.51,552.52 58.88,553.83"/>
    </edge>
    <edge id=":5440948704_4" function="internal">
        <lane id=":5440948704_4_0" index="0" allow="pedestrian delivery bicycle" speed="7.23" length="12.14" shape="61.73,548.35 58.47,550.01 55.66,550.33 53.29,549.30 51.37,546.92"/>
    </edge>
    <edge id=":5440948704_5" function="internal">
        <lane id=":5440948704_5_0" index="0" allow="pedestrian delivery bicycle" speed="3.65" length="4.67" shape="61.73,548.35 60.29,548.35 59.51,547.91 59.40,547.02 59.95,545.69"/>
    </edge>
    <edge id=":5440948704_6" function="internal">
        <lane id=":5440948704_6_0" index="0" allow="pedestrian delivery bicycle" speed="4.48" length="3.98" shape="56.96,543.81 57.74,544.99 58.49,545.69 59.23,545.93 59.95,545.69"/>
    </edge>
    <edge id=":5440948704_7" function="internal">
        <lane id=":5440948704_7_0" index="0" disallow="tram rail_urban rail rail_electric rail_fast ship" speed="13.89" length="9.69" shape="54.16,545.36 58.88,553.83"/>
    </edge>
    <edge id=":5440948705_0" function="internal">
        <lane id=":5440948705_0_0" index="0" disallow="tram rail_urban rail rail_electric rail_fast ship" speed="13.89" length="8.37" shape="73.55,586.88 71.95,584.97 70.25,584.16 68.55,583.35 66.92,581.46"/>
        <lane id=":5440948705_0_1" index="1" disallow="tram rail_urban rail rail_electric rail_fast ship" speed="13.89" length="8.37" shape="73.55,586.88 69.71,579.90"/>
    </edge>
    <edge id=":5440948705_2" function="internal">
        <lane id=":5440948705_2_0" index="0" disallow="tram rail_urban rail rail_electric rail_fast ship" speed="13.89" length="9.23" shape="72.51,578.34 74.67,580.17 77.24,580.27 79.82,580.40 81.99,582.30"/>
        <lane id=":5440948705_2_1" index="1" disallow="tram rail_urban rail rail_electric rail_fast ship" speed="13.89" length="9.23" shape="72.51,578.34 74.15,580.26 75.86,581.08 77.56,581.90 79.18,583.83"/>
        <lane id=":5440948705_2_2" index="2" disallow="tram rail_urban rail rail_electric rail_fast ship" speed="13.89" length="9.23" shape="72.51,578.34 76.36,585.36"/>
    </edge>
    <edge id=":5440948707_0" function="internal">
        <lane id=":5440948707_0_0" index="0" disallow="tram rail_urban rail rail_electric rail_fast ship" speed="13.89" length="8.51" shape="165.89,651.32 163.60,652.29 162.33,653.67 161.07,655.07 158.78,656.07"/>
        <lane id=":5440948707_0_1" index="1" disallow="tram rail_urban rail rail_electric rail_fast ship" speed="13.89" length="8.51" shape="165.26,648.18 162.95,649.16 161.68,650.54 160.40,651.94 158.10,652.95"/>
        <lane id=":5440948707_0_2" index="2" disallow="tram rail_urban rail rail_electric rail_fast ship" speed="13.89" length="8.51" shape="165.26,648.18 157.43,649.82"/>
    </edge>
    <edge id=":5440948707_3" function="internal">
        <lane id=":5440948707_3_0" index="0" disallow="tram rail_urban rail rail_electric rail_fast ship" speed="13.89" length="8.05" shape="156.75,646.69 164.62,645.04"/>
    </edge>
    <edge id=":6121906343_0" function="internal">
        <lane id=":6121906343_0_0" index="0" allow="pedestrian bicycle" speed="8.33" length="11.35" width="1.00" shape="261.11,581.67 259.68,570.41"/>
    </edge>
    <edge id=":6121906343_1" function="internal">
        <lane id=":6121906343_1_0" index="0" allow="pedestrian bicycle" speed="4.66" length="2.07" shape="261.11,581.67 260.95,579.60"/>
    </edge>
    <edge id=":6121906343_2" function="internal">
        <lane id=":6121906343_2_0" index="0" allow="pedestrian bicycle" speed="2.07" length="0.76" width="1.00" shape="261.11,581.67 261.20,581.21 261.38,580.98"/>
    </edge>
    <edge id=":6121906343_9" function="internal">
        <lane id=":6121906343_9_0" index="0" allow="pedestrian bicycle" speed="4.66" length="7.45" shape="260.95,579.60 260.83,578.15 261.16,576.79 262.10,577.60 263.64,580.57"/>
    </edge>
    <edge id=":6121906343_10" function="internal">
        <lane id=":6121906343_10_0" index="0" allow="pedestrian bicycle" speed="2.07" length="0.76" width="1.00" shape="261.38,580.98 261.68,581.00 262.07,581.25"/>
    </edge>
    <edge id=":6121906343_3" function="internal">
        <lane id=":6121906343_3_0" index="0" allow="pedestrian bicycle" speed="3.92" length="5.13" width="1.00" shape="260.71,581.85 261.54,583.45 262.05,583.88 262.22,583.15 262.07,581.25"/>
    </edge>
    <edge id=":6121906343_4" function="internal">
        <lane id=":6121906343_4_0" index="0" allow="pedestrian bicycle" speed="6.95" length="11.59" width="1.00" shape="260.71,581.85 259.76,578.84 259.65,576.28 259.81,573.65 259.68,570.41"/>
    </edge>
    <edge id=":6121906343_5" function="internal">
        <lane id=":6121906343_5_0" index="0" allow="pedestrian motorcycle moped bicycle" speed="3.65" length="4.67" shape="260.71,581.85 260.96,580.43 261.54,579.74 262.43,579.79 263.64,580.57"/>
    </edge>
    <edge id=":6121906343_6" function="internal">
        <lane id=":6121906343_6_0" index="0" allow="pedestrian bicycle" speed="6.95" length="10.77" shape="260.67,570.29 261.11,573.35 261.61,575.58 262.39,577.74 263.64,580.57"/>
    </edge>
    <edge id=":6121906343_7" function="internal">
        <lane id=":6121906343_7_0" index="0" allow="pedestrian bicycle" speed="8.33" length="11.06" width="1.00" shape="260.67,570.29 262.07,581.25"/>
    </edge>
    <edge id=":6121906343_8" function="internal">
        <lane id=":6121906343_8_0" index="0" allow="pedestrian bicycle" speed="2.04" length="1.25" width="1.00" shape="260.67,570.29 260.47,570.69 260.24,570.85 259.97,570.75 259.82,570.58"/>
    </edge>
    <edge id=":6121906343_11" function="internal">
        <lane id=":6121906343_11_0" index="0" allow="pedestrian bicycle" speed="2.04" length="0.21" width="1.00" shape="259.82,570.58 259.68,570.41"/>
    </edge>
    <edge id=":687492992_0" function="internal">
        <lane id=":687492992_0_0" index="0" disallow="tram rail_urban rail rail_electric rail_fast ship" speed="3.65" length="4.67" shape="46.42,684.18 45.02,683.86 44.36,683.25 44.46,682.36 45.30,681.19"/>
    </edge>
    <edge id=":8848170133_0" function="internal">
        <lane id=":8848170133_0_0" index="0" disallow="tram rail_urban rail rail_electric rail_fast ship" speed="8.33" length="5.00" shape="175.28,548.76 175.02,543.76"/>
    </edge>
    <edge id=":8848170133_1" function="internal">
        <lane id=":8848170133_1_0" index="0" disallow="tram rail_urban rail rail_electric rail_fast ship" speed="8.33" length="5.00" shape="178.22,543.59 178.48,548.59"/>
    </edge>
    <edge id=":9079082378_0" function="internal">
        <lane id=":9079082378_0_0" index="0" allow="pedestrian bicycle" speed="8.33" length="5.02" width="1.00" shape="267.16,613.22 266.14,608.30"/>
    </edge>
    <edge id=":9079082378_1" function="internal">
        <lane id=":9079082378_1_0" index="0" allow="pedestrian bicycle" speed="2.04" length="1.25" width="1.00" shape="267.16,613.22 267.33,612.80 267.55,612.63 267.82,612.70 267.99,612.87"/>
    </edge>
    <edge id=":9079082378_4" function="internal">
        <lane id=":9079082378_4_0" index="0" allow="pedestrian bicycle" speed="2.04" length="0.21" width="1.00" shape="267.99,612.87 268.14,613.02"/>
    </edge>
    <edge id=":9079082378_2" function="internal">
        <lane id=":9079082378_2_0" index="0" allow="pedestrian bicycle" speed="8.33" length="5.02" width="1.00" shape="267.12,608.10 268.14,613.02"/>
    </edge>
    <edge id=":9079082378_3" function="internal">
        <lane id=":9079082378_3_0" index="0" allow="pedestrian bicycle" speed="2.04" length="1.25" width="1.00" shape="267.12,608.10 266.95,608.52 266.73,608.69 266.46,608.62 266.29,608.45"/>
    </edge>
    <edge id=":9079082378_5" function="internal">
        <lane id=":9079082378_5_0" index="0" allow="pedestrian bicycle" speed="2.04" length="0.21" width="1.00" shape="266.29,608.45 266.14,608.30"/>
    </edge>
    <edge id=":9534600272_0" function="internal">
        <lane id=":9534600272_0_0" index="0" disallow="tram rail_urban rail rail_electric rail_fast ship" speed="13.89" length="8.99" shape="200.46,701.61 197.53,693.11"/>
    </edge>
    <edge id=":9534600272_1" function="internal">
        <lane id=":9534600272_1_0" index="0" allow="pedestrian delivery bicycle" speed="6.76" length="3.05" shape="200.46,701.61 199.99,699.04 200.10,698.61"/>
    </edge>
    <edge id=":9534600272_7" function="internal">
        <lane id=":9534600272_7_0" index="0" allow="pedestrian delivery bicycle" speed="6.76" length="6.78" shape="200.10,698.61 200.51,696.92 202.01,695.23 204.50,693.98"/>
    </edge>
    <edge id=":9534600272_2" function="internal">
        <lane id=":9534600272_2_0" index="0" allow="pedestrian delivery bicycle" speed="4.91" length="4.68" shape="205.54,697.01 204.32,697.61 203.56,698.40 203.29,699.39 203.49,700.56"/>
    </edge>
    <edge id=":9534600272_3" function="internal">
        <lane id=":9534600272_3_0" index="0" allow="pedestrian delivery bicycle" speed="6.86" length="10.16" shape="205.54,697.01 202.81,697.54 200.56,697.06 198.80,695.59 197.53,693.11"/>
    </edge>
    <edge id=":9534600272_4" function="internal">
        <lane id=":9534600272_4_0" index="0" allow="pedestrian delivery bicycle" speed="3.65" length="4.67" shape="205.54,697.01 204.15,696.64 203.51,696.02 203.63,695.13 204.50,693.98"/>
    </edge>
    <edge id=":9534600272_5" function="internal">
        <lane id=":9534600272_5_0" index="0" allow="pedestrian delivery bicycle" speed="5.04" length="5.00" shape="200.56,692.06 201.18,693.28 202.05,694.01 203.15,694.24 204.50,693.98"/>
    </edge>
    <edge id=":9534600272_6" function="internal">
        <lane id=":9534600272_6_0" index="0" disallow="tram rail_urban rail rail_electric rail_fast ship" speed="13.89" length="8.99" shape="200.56,692.06 203.49,700.56"/>
    </edge>
    <edge id=":9534600280_0" function="internal">
        <lane id=":9534600280_0_0" index="0" disallow="tram rail_urban rail rail_electric rail_fast ship" speed="13.89" length="9.40" shape="227.00,770.84 223.27,762.21"/>
    </edge>
    <edge id=":9534600280_1" function="internal">
        <lane id=":9534600280_1_0" index="0" allow="pedestrian delivery bicycle" speed="6.86" length="3.27" shape="227.00,770.84 226.27,768.16 226.33,767.68"/>
    </edge>
    <edge id=":9534600280_7" function="internal">
        <lane id=":9534600280_7_0" index="0" allow="pedestrian delivery bicycle" speed="6.86" length="6.90" shape="226.33,767.68 226.57,765.88 227.91,764.02 230.29,762.56"/>
    </edge>
    <edge id=":9534600280_2" function="internal">
        <lane id=":9534600280_2_0" index="0" allow="pedestrian delivery bicycle" speed="5.04" length="5.00" shape="231.55,765.50 230.39,766.22 229.73,767.13 229.58,768.25 229.94,769.58"/>
    </edge>
    <edge id=":9534600280_3" function="internal">
        <lane id=":9534600280_3_0" index="0" allow="pedestrian delivery bicycle" speed="6.86" length="10.16" shape="231.55,765.50 228.87,766.23 226.59,765.93 224.73,764.59 223.27,762.21"/>
    </edge>
    <edge id=":9534600280_4" function="internal">
        <lane id=":9534600280_4_0" index="0" allow="pedestrian delivery bicycle" speed="3.65" length="4.67" shape="231.55,765.50 230.14,765.24 229.45,764.67 229.50,763.77 230.29,762.56"/>
    </edge>
    <edge id=":9534600280_5" function="internal">
        <lane id=":9534600280_5_0" index="0" allow="pedestrian delivery bicycle" speed="5.04" length="5.00" shape="226.21,760.95 226.93,762.11 227.84,762.77 228.96,762.92 230.29,762.56"/>
    </edge>
    <edge id=":9534600280_6" function="internal">
        <lane id=":9534600280_6_0" index="0" disallow="tram rail_urban rail rail_electric rail_fast ship" speed="13.89" length="9.40" shape="226.21,760.95 229.94,769.58"/>
    </edge>
    <edge id=":cluster_116203243_2821318525_0" function="internal">