<?xml version="1.0" encoding="UTF-8"?>

<!-- generated on 2022-03-05 19:06:02 by Eclipse SUMO netconvert Version 1.12.0
<configuration xmlns:xsi="http://www.w3.org/2001/XMLSchema-instance" xsi:noNamespaceSchemaLocation="http://sumo.dlr.de/xsd/netconvertConfiguration.xsd">

    <input>
        <osm-files value="map.osm"/>
    </input>

    <output>
        <output-file value="map.net.xml"/>
    </output>

    <projection>
        <proj.utm value="true"/>
    </projection>

    <processing>
        <geometry.remove value="true"/>
        <roundabouts.guess value="true"/>
    </processing>

    <tls_building>
        <tls.discard-simple value="true"/>
        <tls.join value="true"/>
        <tls.guess-signals value="true"/>
    </tls_building>

    <ramp_guessing>
        <ramps.guess value="true"/>
    </ramp_guessing>

    <junctions>
        <junctions.join value="true"/>
    </junctions>

    <report>
        <aggregate-warnings value="5"/>
    </report>

</configuration>
-->

<net version="1.9" junctionCornerDetail="5" limitTurnSpeed="5.50" xmlns:xsi="http://www.w3.org/2001/XMLSchema-instance" xsi:noNamespaceSchemaLocation="http://sumo.dlr.de/xsd/net_file.xsd">

    <location netOffset="-546214.60,-5338544.62" convBoundary="0.00,0.00,1500.12,1053.32" origBoundary="15.621969,48.186997,15.841150,48.373044" projParameter="+proj=utm +zone=33 +ellps=WGS84 +datum=WGS84 +units=m +no_defs"/>

    <type id="highway.bridleway" priority="1" numLanes="1" speed="2.78" allow="pedestrian" oneway="1" width="2.00"/>
    <type id="highway.bus_guideway" priority="1" numLanes="1" speed="27.78" allow="bus" oneway="1"/>
    <type id="highway.cycleway" priority="1" numLanes="1" speed="8.33" allow="bicycle" oneway="0" width="1.00"/>
    <type id="highway.footway" priority="1" numLanes="1" speed="2.78" allow="pedestrian" oneway="1" width="2.00"/>
    <type id="highway.ford" priority="1" numLanes="1" speed="2.78" allow="army" oneway="0"/>
    <type id="highway.living_street" priority="2" numLanes="1" speed="2.78" disallow="tram rail_urban rail rail_electric rail_fast ship" oneway="0"/>
    <type id="highway.motorway" priority="14" numLanes="2" speed="39.44" allow="private emergency authority army vip passenger hov taxi bus coach delivery truck trailer motorcycle evehicle custom1 custom2" oneway="1"/>
    <type id="highway.motorway_link" priority="9" numLanes="1" speed="22.22" allow="private emergency authority army vip passenger hov taxi bus coach delivery truck trailer motorcycle evehicle custom1 custom2" oneway="1"/>
    <type id="highway.path" priority="1" numLanes="1" speed="2.78" allow="pedestrian bicycle" oneway="0" width="2.00"/>
    <type id="highway.pedestrian" priority="1" numLanes="1" speed="2.78" allow="pedestrian" oneway="1" width="2.00"/>
    <type id="highway.primary" priority="12" numLanes="2" speed="27.78" disallow="tram rail_urban rail rail_electric rail_fast ship" oneway="0"/>
    <type id="highway.primary_link" priority="7" numLanes="1" speed="22.22" disallow="tram rail_urban rail rail_electric rail_fast ship" oneway="0"/>
    <type id="highway.raceway" priority="15" numLanes="2" speed="83.33" allow="vip" oneway="0"/>
    <type id="highway.residential" priority="3" numLanes="1" speed="13.89" disallow="tram rail_urban rail rail_electric rail_fast ship" oneway="0"/>
    <type id="highway.secondary" priority="11" numLanes="1" speed="27.78" disallow="tram rail_urban rail rail_electric rail_fast ship" oneway="0"/>
    <type id="highway.secondary_link" priority="6" numLanes="1" speed="22.22" disallow="tram rail_urban rail rail_electric rail_fast ship" oneway="0"/>
    <type id="highway.service" priority="1" numLanes="1" speed="5.56" allow="pedestrian delivery bicycle" oneway="0"/>
    <type id="highway.stairs" priority="1" numLanes="1" speed="1.39" allow="pedestrian" oneway="1" width="2.00"/>
    <type id="highway.step" priority="1" numLanes="1" speed="1.39" allow="pedestrian" oneway="1" width="2.00"/>
    <type id="highway.steps" priority="1" numLanes="1" speed="1.39" allow="pedestrian" oneway="1" width="2.00"/>
    <type id="highway.tertiary" priority="10" numLanes="1" speed="22.22" disallow="tram rail_urban rail rail_electric rail_fast ship" oneway="0"/>
    <type id="highway.tertiary_link" priority="5" numLanes="1" speed="22.22" disallow="tram rail_urban rail rail_electric rail_fast ship" oneway="0"/>
    <type id="highway.track" priority="1" numLanes="1" speed="5.56" allow="pedestrian motorcycle moped bicycle" oneway="0"/>
    <type id="highway.trunk" priority="13" numLanes="2" speed="27.78" disallow="pedestrian bicycle tram rail_urban rail rail_electric rail_fast ship" oneway="0"/>
    <type id="highway.trunk_link" priority="8" numLanes="1" speed="22.22" disallow="pedestrian bicycle tram rail_urban rail rail_electric rail_fast ship" oneway="0"/>
    <type id="highway.unclassified" priority="4" numLanes="1" speed="13.89" disallow="tram rail_urban rail rail_electric rail_fast ship" oneway="0"/>
    <type id="highway.unsurfaced" priority="1" numLanes="1" speed="8.33" disallow="tram rail_urban rail rail_electric rail_fast ship" oneway="0"/>
    <type id="railway.highspeed" priority="21" numLanes="1" speed="69.44" allow="rail_fast" oneway="1"/>
    <type id="railway.light_rail" priority="19" numLanes="1" speed="27.78" allow="rail_urban" oneway="1"/>
    <type id="railway.preserved" priority="16" numLanes="1" speed="27.78" allow="rail" oneway="1"/>
    <type id="railway.rail" priority="20" numLanes="1" speed="44.44" allow="rail" oneway="1"/>
    <type id="railway.subway" priority="18" numLanes="1" speed="27.78" allow="rail_urban" oneway="1"/>
    <type id="railway.tram" priority="17" numLanes="1" speed="13.89" allow="tram" oneway="1"/>

    <edge id=":1024907336_0" function="internal">
        <lane id=":1024907336_0_0" index="0" disallow="tram rail_urban rail rail_electric rail_fast ship" speed="3.65" length="4.67" shape="635.13,133.65 635.60,132.29 636.27,131.70 637.15,131.89 638.23,132.84"/>
    </edge>
    <edge id=":116203037_0" function="internal">
        <lane id=":116203037_0_0" index="0" disallow="tram rail_urban rail rail_electric rail_fast ship" speed="9.74" length="9.21" shape="651.33,702.53 649.05,703.87 647.24,705.39 645.93,707.09 645.10,708.96"/>
    </edge>
    <edge id=":116203037_1" function="internal">
        <lane id=":116203037_1_0" index="0" disallow="tram rail_urban rail rail_electric rail_fast ship" speed="8.06" length="13.72" shape="651.33,702.53 647.46,703.93 644.16,704.02 641.45,702.80 639.31,700.25"/>
    </edge>
    <edge id=":116203037_2" function="internal">
        <lane id=":116203037_2_0" index="0" disallow="tram rail_urban rail rail_electric rail_fast ship" speed="9.38" length="8.39" shape="642.03,708.05 642.09,706.80 641.65,705.08 640.73,702.90 639.31,700.25"/>
    </edge>
    <edge id=":116203046_0" function="internal">
        <lane id=":116203046_0_0" index="0" disallow="tram rail_urban rail rail_electric rail_fast ship" speed="7.42" length="8.97" shape="637.37,696.08 636.67,693.53 635.55,691.60 634.01,690.30 632.05,689.63"/>
    </edge>
    <edge id=":116203046_1" function="internal">
        <lane id=":116203046_1_0" index="0" disallow="tram rail_urban rail rail_electric rail_fast ship" speed="9.29" length="10.59" shape="637.37,696.08 637.21,693.37 637.69,690.86 638.81,688.55 640.57,686.44"/>
    </edge>
    <edge id=":116203067_0" function="internal">
        <lane id=":116203067_0_0" index="0" disallow="tram rail_urban rail rail_electric rail_fast ship" speed="12.72" length="8.61" shape="639.51,661.77 638.34,659.52 637.32,658.07 635.99,656.92 633.85,655.56"/>
    </edge>
    <edge id=":116203067_1" function="internal">
        <lane id=":116203067_1_0" index="0" disallow="tram rail_urban rail rail_electric rail_fast ship" speed="6.10" length="6.57" shape="639.51,661.77 638.39,659.35 637.71,657.52 637.49,656.28 637.71,655.63"/>
    </edge>
    <edge id=":116203067_2" function="internal">
        <lane id=":116203067_2_0" index="0" disallow="tram rail_urban rail rail_electric rail_fast ship" speed="6.47" length="0.45" shape="639.69,658.14 639.25,658.11"/>
    </edge>
    <edge id=":116203067_3" function="internal">
        <lane id=":116203067_3_0" index="0" disallow="tram rail_urban rail rail_electric rail_fast ship" speed="3.65" length="0.30" shape="639.69,658.14 639.39,658.16"/>
    </edge>
    <edge id=":116203067_4" function="internal">
        <lane id=":116203067_4_0" index="0" disallow="tram rail_urban rail rail_electric rail_fast ship" speed="6.47" length="6.04" shape="639.25,658.11 638.57,658.07 636.80,657.28 635.01,656.27 633.85,655.56"/>
    </edge>
    <edge id=":116203067_5" function="internal">
        <lane id=":116203067_5_0" index="0" disallow="tram rail_urban rail rail_electric rail_fast ship" speed="3.65" length="4.37" shape="639.39,658.16 638.25,658.26 637.45,657.88 637.26,657.00 637.71,655.63"/>
    </edge>
    <edge id=":116203176_0" function="internal">
        <lane id=":116203176_0_0" index="0" disallow="tram rail_urban rail rail_electric rail_fast ship" speed="13.89" length="7.59" shape="541.66,809.65 535.92,814.63"/>
    </edge>
    <edge id=":116203176_1" function="internal">
        <lane id=":116203176_1_0" index="0" disallow="tram rail_urban rail rail_electric rail_fast ship" speed="6.01" length="4.37" shape="541.66,809.65 538.41,811.92 538.00,811.93"/>
    </edge>
    <edge id=":116203176_2" function="internal">
        <lane id=":116203176_2_0" index="0" disallow="tram rail_urban rail rail_electric rail_fast ship" speed="3.65" length="1.44" shape="541.66,809.65 540.23,809.84"/>
    </edge>
    <edge id=":116203176_6" function="internal">
        <lane id=":116203176_6_0" index="0" disallow="tram rail_urban rail rail_electric rail_fast ship" speed="6.01" length="8.45" shape="538.00,811.93 536.40,811.95 535.62,809.73 536.07,805.26"/>
    </edge>
    <edge id=":116203176_7" function="internal">
        <lane id=":116203176_7_0" index="0" disallow="tram rail_urban rail rail_electric rail_fast ship" speed="3.65" length="3.23" shape="540.23,809.84 539.40,809.50 539.17,808.64 539.55,807.25"/>
    </edge>
    <edge id=":116203176_3" function="internal">
        <lane id=":116203176_3_0" index="0" disallow="tram rail_urban rail rail_electric rail_fast ship" speed="11.11" length="7.77" shape="533.61,812.41 535.00,810.67 535.56,809.21 535.76,807.56 536.07,805.26"/>
    </edge>
    <edge id=":116203176_4" function="internal">
        <lane id=":116203176_4_0" index="0" disallow="tram rail_urban rail rail_electric rail_fast ship" speed="13.89" length="7.87" shape="533.61,812.41 535.27,810.77 536.49,809.74 537.76,808.75 539.55,807.25"/>
    </edge>
    <edge id=":116203176_5" function="internal">
        <lane id=":116203176_5_0" index="0" disallow="tram rail_urban rail rail_electric rail_fast ship" speed="3.65" length="1.44" shape="533.61,812.41 535.02,812.10"/>
    </edge>
    <edge id=":116203176_8" function="internal">
        <lane id=":116203176_8_0" index="0" disallow="tram rail_urban rail rail_electric rail_fast ship" speed="3.65" length="3.23" shape="535.02,812.10 535.88,812.36 536.18,813.21 535.92,814.63"/>
    </edge>
    <edge id=":116203187_0" function="internal">
        <lane id=":116203187_0_0" index="0" disallow="tram rail_urban rail rail_electric rail_fast ship" speed="8.33" length="11.24" shape="527.36,684.03 516.12,683.80"/>
    </edge>
    <edge id=":116203187_1" function="internal">
        <lane id=":116203187_1_0" index="0" disallow="tram rail_urban rail rail_electric rail_fast ship" speed="6.50" length="9.05" shape="521.65,689.47 521.33,687.00 520.31,685.24 518.57,684.17 516.12,683.80"/>
    </edge>
    <edge id=":116203191_0" function="internal">
        <lane id=":116203191_0_0" index="0" disallow="tram rail_urban rail rail_electric rail_fast ship" speed="6.02" length="9.07" shape="464.52,685.37 461.96,685.75 460.35,686.85 459.70,688.69 460.01,691.26"/>
    </edge>
    <edge id=":116203191_1" function="internal">
        <lane id=":116203191_1_0" index="0" disallow="tram rail_urban rail rail_electric rail_fast ship" speed="8.33" length="11.27" shape="464.52,685.37 453.25,685.28"/>
    </edge>
    <edge id=":116203191_2" function="internal">
        <lane id=":116203191_2_0" index="0" disallow="tram rail_urban rail rail_electric rail_fast ship" speed="3.65" length="4.67" shape="464.52,685.37 463.32,684.58 462.92,683.78 463.32,682.98 464.51,682.17"/>
    </edge>
    <edge id=":116203191_3" function="internal">
        <lane id=":116203191_3_0" index="0" disallow="tram rail_urban rail rail_electric rail_fast ship" speed="8.33" length="11.20" shape="453.32,682.08 464.51,682.17"/>
    </edge>
    <edge id=":116203191_4" function="internal">
        <lane id=":116203191_4_0" index="0" disallow="tram rail_urban rail rail_electric rail_fast ship" speed="8.30" length="12.05" shape="453.32,682.08 455.34,682.69 457.13,684.42 458.68,687.28 460.01,691.26"/>
    </edge>
    <edge id=":116203191_5" function="internal">
        <lane id=":116203191_5_0" index="0" disallow="tram rail_urban rail rail_electric rail_fast ship" speed="3.65" length="4.67" shape="453.32,682.08 454.50,682.91 454.88,683.72 454.46,684.51 453.25,685.28"/>
    </edge>
    <edge id=":116203194_0" function="internal">
        <lane id=":116203194_0_0" index="0" disallow="tram rail_urban rail rail_electric rail_fast ship" speed="3.65" length="0.88" shape="487.78,775.89 487.84,775.01"/>
    </edge>
    <edge id=":116203194_2" function="internal">
        <lane id=":116203194_2_0" index="0" disallow="tram rail_urban rail rail_electric rail_fast ship" speed="3.65" length="3.80" shape="487.84,775.01 487.88,774.45 488.37,773.71 489.26,773.65 490.55,774.30"/>
    </edge>
    <edge id=":116203194_1" function="internal">
        <lane id=":116203194_1_0" index="0" disallow="tram rail_urban rail rail_electric rail_fast ship" speed="11.11" length="3.04" shape="487.94,772.74 490.55,774.30"/>
    </edge>
    <edge id=":116203247_0" function="internal">
        <lane id=":116203247_0_0" index="0" disallow="tram rail_urban rail rail_electric rail_fast ship" speed="13.89" length="8.00" shape="906.69,634.83 898.83,636.36"/>
        <lane id=":116203247_0_1" index="1" disallow="tram rail_urban rail rail_electric rail_fast ship" speed="13.89" length="8.00" shape="906.07,631.69 898.22,633.22"/>
    </edge>
    <edge id=":116203247_2" function="internal">
        <lane id=":116203247_2_0" index="0" disallow="tram rail_urban rail rail_electric rail_fast ship" speed="13.89" length="8.80" shape="897.00,626.94 899.51,626.96 901.23,627.75 902.95,628.53 905.46,628.55"/>
    </edge>
    <edge id=":1348863852_0" function="internal">
        <lane id=":1348863852_0_0" index="0" allow="pedestrian bicycle" speed="2.78" length="2.92" width="2.00" shape="936.55,796.98 935.91,796.35 935.75,795.82 936.09,795.37 936.92,795.02"/>
    </edge>
    <edge id=":1348863861_0" function="internal">
        <lane id=":1348863861_0_0" index="0" allow="pedestrian bicycle" speed="2.78" length="7.85" width="2.00" shape="947.44,802.14 946.21,800.30 944.91,799.41 943.29,798.86 941.08,798.05"/>
    </edge>
    <edge id=":1348863861_1" function="internal">
        <lane id=":1348863861_1_0" index="0" allow="pedestrian bicycle" speed="2.78" length="8.69" width="2.00" shape="947.44,802.14 946.30,799.83 945.60,798.21 944.97,796.56 944.05,794.15"/>
    </edge>
    <edge id=":1348863861_2" function="internal">
        <lane id=":1348863861_2_0" index="0" allow="pedestrian bicycle" speed="2.78" length="2.92" width="2.00" shape="947.44,802.14 947.54,801.25 947.88,800.80 948.43,800.79 949.22,801.23"/>
    </edge>
    <edge id=":1348863861_3" function="internal">
        <lane id=":1348863861_3_0" index="0" allow="pedestrian bicycle" speed="2.78" length="8.49" width="2.00" shape="945.91,793.42 946.81,795.77 947.43,797.39 948.11,798.97 949.22,801.23"/>
    </edge>
    <edge id=":1348863861_4" function="internal">
        <lane id=":1348863861_4_0" index="0" allow="pedestrian bicycle" speed="2.78" length="10.90" width="2.00" shape="945.91,793.42 946.82,796.78 946.32,798.68 944.41,799.10 941.08,798.05"/>
    </edge>
    <edge id=":1348863861_5" function="internal">
        <lane id=":1348863861_5_0" index="0" allow="pedestrian bicycle" speed="2.78" length="2.92" width="2.00" shape="945.91,793.42 945.72,794.30 945.35,794.72 944.79,794.67 944.05,794.15"/>
    </edge>
    <edge id=":1348863861_6" function="internal">
        <lane id=":1348863861_6_0" index="0" allow="pedestrian bicycle" speed="2.78" length="4.87" width="2.00" shape="941.89,796.22 943.38,796.69 944.23,796.50 944.46,795.66 944.05,794.15"/>
    </edge>
    <edge id=":1348863861_7" function="internal">
        <lane id=":1348863861_7_0" index="0" allow="pedestrian bicycle" speed="2.78" length="9.21" width="2.00" shape="941.89,796.22 944.47,797.21 946.32,797.92 947.79,799.03 949.22,801.23"/>
    </edge>
    <edge id=":1348863861_8" function="internal">
        <lane id=":1348863861_8_0" index="0" allow="pedestrian bicycle" speed="2.78" length="2.92" width="2.00" shape="941.89,796.22 942.38,796.98 942.40,797.54 941.97,797.90 941.08,798.05"/>
    </edge>
    <edge id=":1494100715_0" function="internal">
        <lane id=":1494100715_0_0" index="0" allow="pedestrian delivery bicycle" speed="5.56" length="6.08" shape="1274.52,773.21 1268.86,775.42"/>
    </edge>
    <edge id=":1494100715_1" function="internal">
        <lane id=":1494100715_1_0" index="0" allow="pedestrian delivery bicycle" speed="5.56" length="7.72" shape="1274.52,773.21 1273.17,773.29 1271.86,772.52 1270.58,770.89 1269.35,768.40"/>
    </edge>
    <edge id=":1494100715_2" function="internal">
        <lane id=":1494100715_2_0" index="0" allow="pedestrian delivery bicycle" speed="3.65" length="4.67" shape="1274.52,773.21 1273.12,772.88 1272.46,772.27 1272.56,771.38 1273.40,770.21"/>
    </edge>
    <edge id=":1494100715_3" function="internal">
        <lane id=":1494100715_3_0" index="0" allow="pedestrian delivery bicycle" speed="5.03" length="5.01" shape="1267.66,772.45 1268.85,771.76 1269.53,770.85 1269.69,769.74 1269.35,768.40"/>
    </edge>
    <edge id=":1494100715_4" function="internal">
        <lane id=":1494100715_4_0" index="0" allow="pedestrian delivery bicycle" speed="5.56" length="6.16" shape="1267.66,772.45 1273.40,770.21"/>
    </edge>
    <edge id=":1494100715_5" function="internal">
        <lane id=":1494100715_5_0" index="0" allow="pedestrian delivery bicycle" speed="3.65" length="4.67" shape="1267.66,772.45 1269.07,772.74 1269.74,773.33 1269.67,774.23 1268.86,775.42"/>
    </edge>
    <edge id=":1494100716_0" function="internal">
        <lane id=":1494100716_0_0" index="0" disallow="tram rail_urban rail rail_electric rail_fast ship" speed="13.89" length="9.07" shape="1227.30,795.50 1223.92,787.08"/>
    </edge>
    <edge id=":1494100716_1" function="internal">
        <lane id=":1494100716_1_0" index="0" allow="pedestrian delivery bicycle" speed="6.92" length="3.03" shape="1227.30,795.50 1226.75,792.85 1226.81,792.54"/>
    </edge>
    <edge id=":1494100716_7" function="internal">
        <lane id=":1494100716_7_0" index="0" allow="pedestrian delivery bicycle" speed="6.92" length="6.97" shape="1226.81,792.54 1227.16,790.62 1228.55,788.81 1230.91,787.42"/>
    </edge>
    <edge id=":1494100716_2" function="internal">
        <lane id=":1494100716_2_0" index="0" allow="pedestrian delivery bicycle" speed="5.11" length="5.00" shape="1232.13,790.38 1230.95,791.07 1230.25,791.98 1230.04,793.09 1230.31,794.41"/>
    </edge>
    <edge id=":1494100716_3" function="internal">
        <lane id=":1494100716_3_0" index="0" allow="pedestrian delivery bicycle" speed="6.88" length="10.04" shape="1232.13,790.38 1229.48,791.06 1227.22,790.74 1225.37,789.41 1223.92,787.08"/>
    </edge>
    <edge id=":1494100716_4" function="internal">
        <lane id=":1494100716_4_0" index="0" allow="pedestrian delivery bicycle" speed="3.65" length="4.67" shape="1232.13,790.38 1230.72,790.10 1230.04,789.51 1230.11,788.62 1230.91,787.42"/>
    </edge>
    <edge id=":1494100716_5" function="internal">
        <lane id=":1494100716_5_0" index="0" allow="pedestrian delivery bicycle" speed="5.07" length="4.97" shape="1226.84,785.79 1227.56,786.94 1228.48,787.60 1229.59,787.76 1230.91,787.42"/>
    </edge>
    <edge id=":1494100716_6" function="internal">
        <lane id=":1494100716_6_0" index="0" disallow="tram rail_urban rail rail_electric rail_fast ship" speed="13.89" length="9.29" shape="1226.84,785.79 1230.31,794.41"/>
    </edge>
    <edge id=":1649430963_0" function="internal">
        <lane id=":1649430963_0_0" index="0" allow="pedestrian delivery bicycle" speed="3.65" length="4.67" shape="1280.73,512.47 1280.33,511.08 1280.54,510.21 1281.36,509.86 1282.79,510.01"/>
    </edge>
    <edge id=":1649430973_0" function="internal">
        <lane id=":1649430973_0_0" index="0" allow="pedestrian delivery bicycle" speed="5.56" length="10.10" shape="1301.80,531.86 1300.22,529.34 1298.92,527.76 1297.37,526.38 1295.06,524.48"/>
    </edge>
    <edge id=":1649430973_1" function="internal">
        <lane id=":1649430973_1_0" index="0" allow="pedestrian delivery bicycle" speed="5.56" length="11.02" shape="1301.80,531.86 1300.67,529.07 1300.65,526.74 1301.06,524.29 1301.26,521.11"/>
    </edge>
    <edge id=":1649430973_2" function="internal">
        <lane id=":1649430973_2_0" index="0" allow="pedestrian delivery bicycle" speed="3.65" length="4.67" shape="1301.80,531.86 1301.89,530.42 1302.37,529.67 1303.26,529.61 1304.56,530.24"/>
    </edge>
    <edge id=":1649430973_3" function="internal">
        <lane id=":1649430973_3_0" index="0" allow="pedestrian delivery bicycle" speed="5.56" length="8.37" shape="1304.50,522.11 1304.28,524.60 1303.81,526.39 1303.70,528.06 1304.56,530.24"/>
    </edge>
    <edge id=":1649430973_4" function="internal">
        <lane id=":1649430973_4_0" index="0" allow="pedestrian delivery bicycle" speed="5.56" length="14.84" shape="1304.50,522.11 1304.04,526.23 1302.32,528.00 1299.32,527.41 1295.06,524.48"/>
    </edge>
    <edge id=":1649430973_5" function="internal">
        <lane id=":1649430973_5_0" index="0" allow="pedestrian delivery bicycle" speed="3.72" length="4.95" shape="1304.50,522.11 1303.31,523.07 1302.38,523.23 1301.70,522.57 1301.26,521.11"/>
    </edge>
    <edge id=":1649430973_6" function="internal">
        <lane id=":1649430973_6_0" index="0" allow="pedestrian delivery bicycle" speed="4.60" length="6.21" shape="1297.38,522.26 1299.14,523.45 1300.37,523.66 1301.08,522.88 1301.26,521.11"/>
    </edge>
    <edge id=":1649430973_7" function="internal">
        <lane id=":1649430973_7_0" index="0" allow="pedestrian delivery bicycle" speed="5.56" length="10.83" shape="1297.38,522.26 1299.76,524.25 1301.46,525.84 1302.91,527.63 1304.56,530.24"/>
    </edge>
    <edge id=":1649430973_8" function="internal">
        <lane id=":1649430973_8_0" index="0" allow="pedestrian delivery bicycle" speed="3.66" length="4.70" shape="1297.38,522.26 1297.63,523.68 1297.33,524.53 1296.47,524.80 1295.06,524.48"/>
    </edge>
    <edge id=":1730088414_0" function="internal">
        <lane id=":1730088414_0_0" index="0" allow="pedestrian delivery bicycle" speed="3.65" length="4.67" shape="772.87,516.93 774.08,517.72 774.49,518.51 774.09,519.32 772.90,520.13"/>
    </edge>
    <edge id=":1776790975_0" function="internal">
        <lane id=":1776790975_0_0" index="0" disallow="tram rail_urban rail rail_electric rail_fast ship" speed="13.89" length="5.52" shape="1189.89,712.46 1189.18,710.99 1188.79,709.94 1188.51,708.85 1188.13,707.25"/>
    </edge>
    <edge id=":1776790975_1" function="internal">
        <lane id=":1776790975_1_0" index="0" disallow="tram rail_urban rail rail_electric rail_fast ship" speed="13.89" length="4.79" shape="1191.24,706.49 1191.56,707.87 1191.80,708.82 1192.14,709.74 1192.75,711.02"/>
    </edge>
    <edge id=":1776790976_0" function="internal">
        <lane id=":1776790976_0_0" index="0" disallow="tram rail_urban rail rail_electric rail_fast ship" speed="3.65" length="4.67" shape="1177.30,660.68 1177.82,659.33 1178.52,658.77 1179.38,658.99 1180.42,659.99"/>
    </edge>
    <edge id=":1825441905_0" function="internal">
        <lane id=":1825441905_0_0" index="0" disallow="tram rail_urban rail rail_electric rail_fast ship" speed="13.89" length="11.12" shape="653.36,484.30 647.77,474.69"/>
    </edge>
    <edge id=":1825441905_1" function="internal">
        <lane id=":1825441905_1_0" index="0" disallow="tram rail_urban rail rail_electric rail_fast ship" speed="6.53" length="9.01" shape="645.85,482.38 647.75,480.79 648.71,478.97 648.71,476.94 647.77,474.69"/>
    </edge>
    <edge id=":1825441909_0" function="internal">
        <lane id=":1825441909_0_0" index="0" disallow="tram rail_urban rail rail_electric rail_fast ship" speed="6.26" length="9.05" shape="535.37,467.78 534.07,469.94 533.85,471.93 534.70,473.74 536.62,475.37"/>
    </edge>
    <edge id=":1825441909_1" function="internal">
        <lane id=":1825441909_1_0" index="0" disallow="tram rail_urban rail rail_electric rail_fast ship" speed="8.33" length="11.19" shape="535.37,467.78 528.22,476.38"/>
    </edge>
    <edge id=":1825441909_2" function="internal">
        <lane id=":1825441909_2_0" index="0" disallow="tram rail_urban rail rail_electric rail_fast ship" speed="3.65" length="4.67" shape="535.37,467.78 533.99,468.20 533.12,468.01 532.75,467.19 532.88,465.76"/>
    </edge>
    <edge id=":1825441909_3" function="internal">
        <lane id=":1825441909_3_0" index="0" disallow="tram rail_urban rail rail_electric rail_fast ship" speed="8.33" length="11.11" shape="525.78,474.30 532.88,465.76"/>
    </edge>
    <edge id=":1825441909_4" function="internal">
        <lane id=":1825441909_4_0" index="0" disallow="tram rail_urban rail rail_electric rail_fast ship" speed="7.77" length="11.85" shape="525.78,474.30 527.66,472.97 530.09,472.70 533.08,473.50 536.62,475.37"/>
    </edge>
    <edge id=":1825441909_5" function="internal">
        <lane id=":1825441909_5_0" index="0" disallow="tram rail_urban rail rail_electric rail_fast ship" speed="3.65" length="4.67" shape="525.78,474.30 527.17,473.91 528.04,474.12 528.39,474.95 528.22,476.38"/>
    </edge>
    <edge id=":1958630810_0" function="internal">
        <lane id=":1958630810_0_0" index="0" disallow="tram rail_urban rail rail_electric rail_fast ship" speed="3.65" length="4.67" shape="465.86,815.02 464.68,814.19 464.29,813.39 464.71,812.59 465.92,811.82"/>
    </edge>
    <edge id=":1986797827_0" function="internal">
        <lane id=":1986797827_0_0" index="0" allow="pedestrian delivery bicycle" speed="3.65" length="4.67" shape="1168.36,432.17 1167.04,431.60 1166.49,430.89 1166.74,430.03 1167.77,429.02"/>
    </edge>
    <edge id=":1986797839_0" function="internal">
        <lane id=":1986797839_0_0" index="0" allow="pedestrian delivery bicycle" speed="5.11" length="5.09" shape="1199.64,460.66 1199.16,459.39 1198.38,458.56 1197.27,458.19 1195.86,458.26"/>
    </edge>
    <edge id=":1986797839_1" function="internal">
        <lane id=":1986797839_1_0" index="0" allow="pedestrian delivery bicycle" speed="5.56" length="9.40" shape="1199.64,460.66 1197.68,451.46"/>
    </edge>
    <edge id=":1986797839_2" function="internal">
        <lane id=":1986797839_2_0" index="0" allow="pedestrian delivery bicycle" speed="3.65" length="4.67" shape="1199.64,460.66 1200.17,459.32 1200.87,458.76 1201.74,458.99 1202.77,459.99"/>
    </edge>
    <edge id=":1986797839_3" function="internal">
        <lane id=":1986797839_3_0" index="0" allow="pedestrian delivery bicycle" speed="5.56" length="9.40" shape="1200.81,450.80 1202.77,459.99"/>
    </edge>
    <edge id=":1986797839_4" function="internal">
        <lane id=":1986797839_4_0" index="0" allow="pedestrian delivery bicycle" speed="5.56" length="10.27" shape="1200.81,450.80 1201.00,453.61 1200.24,455.80 1198.52,457.34 1195.86,458.26"/>
    </edge>
    <edge id=":1986797839_5" function="internal">
        <lane id=":1986797839_5_0" index="0" allow="pedestrian delivery bicycle" speed="3.65" length="4.67" shape="1200.81,450.80 1200.28,452.14 1199.58,452.70 1198.72,452.47 1197.68,451.46"/>
    </edge>
    <edge id=":1986797839_6" function="internal">
        <lane id=":1986797839_6_0" index="0" allow="pedestrian delivery bicycle" speed="5.02" length="5.03" shape="1195.26,455.12 1196.56,454.67 1197.40,453.91 1197.78,452.84 1197.68,451.46"/>
    </edge>
    <edge id=":1986797839_7" function="internal">
        <lane id=":1986797839_7_0" index="0" allow="pedestrian delivery bicycle" speed="5.56" length="10.17" shape="1195.26,455.12 1198.06,454.98 1200.25,455.74 1201.82,457.41 1202.77,459.99"/>
    </edge>
    <edge id=":1986797839_8" function="internal">
        <lane id=":1986797839_8_0" index="0" allow="pedestrian delivery bicycle" speed="3.65" length="4.67" shape="1195.26,455.12 1196.59,455.68 1197.13,456.39 1196.88,457.25 1195.86,458.26"/>
    </edge>
    <edge id=":1986797841_0" function="internal">
        <lane id=":1986797841_0_0" index="0" allow="pedestrian delivery bicycle" speed="3.65" length="4.67" shape="1170.70,463.06 1169.37,462.49 1168.83,461.78 1169.07,460.92 1170.10,459.91"/>
    </edge>
    <edge id=":1986797852_0" function="internal">
        <lane id=":1986797852_0_0" index="0" allow="pedestrian delivery bicycle" speed="3.65" length="4.67" shape="1202.56,490.20 1201.22,489.66 1200.67,488.96 1200.90,488.10 1201.91,487.07"/>
    </edge>
    <edge id=":1986797864_0" function="internal">
        <lane id=":1986797864_0_0" index="0" allow="pedestrian delivery bicycle" speed="3.65" length="4.67" shape="1184.18,521.65 1182.85,521.08 1182.31,520.37 1182.55,519.51 1183.58,518.50"/>
    </edge>
    <edge id=":2137583595_0" function="internal">