<?xml version="1.0" encoding="UTF-8"?>

<!-- generated on 2022-03-05 00:09:43 by Eclipse SUMO polyconvert Version 1.12.0
<configuration xmlns:xsi="http://www.w3.org/2001/XMLSchema-instance" xsi:noNamespaceSchemaLocation="http://sumo.dlr.de/xsd/polyconvertConfiguration.xsd">

    <input>
        <net-file value="osm.net.xml"/>
        <osm-files value="osm_bbox.osm.xml"/>
        <osm.keep-full-type value="true"/>
        <type-file value="C:\Program%20Files%20(x86)\Eclipse\Sumo\data\typemap\osmPolyconvert.typ.xml"/>
    </input>

    <output>
        <output-file value="osm.poly.xml"/>
    </output>

    <processing>
        <poi-layer-offset value="5"/>
    </processing>

    <report>
        <verbose value="true"/>
    </report>

</configuration>
-->

<additional xmlns:xsi="http://www.w3.org/2001/XMLSchema-instance" xsi:noNamespaceSchemaLocation="http://sumo.dlr.de/xsd/additional_file.xsd">
    <location netOffset="-598847.05,-5340087.99" convBoundary="0.00,-4531.17,12720.04,6483.97" origBoundary="16.330742,48.163476,16.500420,48.264203" projParameter="+proj=utm +zone=33 +ellps=WGS84 +datum=WGS84 +units=m +no_defs"/>

    <poly id="1001497188" type="historic.memorial" color="128,255,128" fill="1" layer="-1.00" shape="1755.876340,1076.683456 1762.014073,1078.781801 1773.561715,1079.585773 1779.161237,1078.494867 1783.621074,1074.192970 1786.526176,1067.884636 1788.847045,1060.576488 1789.535773,1055.229701 1789.267930,1047.664659 1789.126189,1039.690471 1787.847360,1031.307098 1785.510504,1024.772911 1780.972443,1011.595752 1774.545042,1002.743586 1768.179395,998.395352 1756.804363,998.328235 1751.140394,1000.963447 1745.569390,1005.912870 1743.883176,1016.000631 1743.196987,1027.529136 1743.539044,1038.475388 1745.571692,1052.153140 1747.514573,1061.648902 1751.408349,1070.489730 1755.876340,1076.683456"/>
    <poly id="101108286" type="building.university" color="255,230,230" fill="1" layer="-1.00" shape="2167.595293,877.948388 2168.139355,881.215631 2182.214009,878.651878 2182.048957,877.481552 2213.489753,871.956588 2236.382176,868.281648 2236.517358,869.040076 2251.186551,866.475903 2250.531555,862.761960 2263.963512,860.409384 2264.152605,861.480076 2274.938409,859.592080 2273.062152,848.896538 2271.780122,849.118422 2270.176774,839.795249 2268.560082,830.805384 2269.663242,830.613684 2267.793998,819.940505 2257.216908,821.787742 2257.426321,822.969974 2254.124269,823.545213 2251.374302,806.797054 2248.953007,794.146194 2250.995319,793.793236 2251.524517,793.702547 2251.159065,791.261201 2249.600521,782.761571 2248.433650,776.481390 2248.027955,773.794732 2247.267681,773.925801 2245.262702,774.268304 2241.488893,752.810163 2240.119083,744.980969 2243.406320,744.405458 2243.615543,745.598805 2254.192767,743.751542 2252.302944,732.977944 2251.110229,733.190298 2249.737329,725.116447 2247.904110,714.921997 2249.022147,714.730556 2247.172543,704.202273 2236.483425,706.069806 2236.699685,707.285513 2222.850199,709.697479 2222.201606,706.039244 2207.815293,708.552922 2208.132559,710.359677 2154.314566,719.758019 2154.038118,718.163234 2140.151360,720.585857 2140.772059,724.143524 2126.676533,726.606957 2126.520816,725.748106 2115.861499,727.616389 2117.698050,738.055447 2119.047152,737.823596 2124.191986,767.077469 2124.927766,771.270904 2120.403286,772.058074 2122.374814,783.266674 2123.716477,783.034693 2131.696264,828.448906 2130.548342,828.650959 2132.512987,839.826088 2137.097040,839.028864 2137.738437,842.675843 2142.916854,872.119346 2141.694459,872.331197 2143.612964,883.171971 2153.540327,881.079550 2153.445423,880.143947 2167.595293,877.948388"/>
    <poly id="101108646" type="landuse.grass" color="194,194,130" fill="1" layer="-3.00" shape="2103.135572,730.370944 2109.435951,768.239553 2110.521225,769.059256 2116.209043,768.459429 2116.824717,767.680933 2110.021009,729.703347 2103.135572,730.370944"/>
    <poly id="101108647" type="landuse.grass" color="194,194,130" fill="1" layer="-3.00" shape="2188.788793,774.635809 2191.493109,788.937133 2189.829017,789.752652 2188.699929,790.989013 2188.121883,792.579791 2184.292544,793.557107 2185.083078,797.173377 2188.605287,796.335161 2189.440483,797.428405 2191.160265,798.503955 2192.946410,798.769057 2196.049874,814.867471 2160.524738,821.487658 2153.219634,781.210797 2188.788793,774.635809"/>
    <poly id="1016952211" type="amenity.shelter" color="237,199,199" fill="1" layer="-1.00" shape="2223.671103,706.143094 2229.122907,705.027763 2229.383347,706.266488 2223.924115,707.381687 2223.671103,706.143094"/>
    <poly id="1024978392" type="building.yes" color="255,230,230" fill="1" layer="-1.00" shape="3180.873405,1338.021686 3165.631801,1319.026131 3186.169199,1282.447514 3190.949055,1288.559050 3195.547973,1294.400517 3180.399761,1316.721851 3191.110087,1329.832714 3189.314828,1331.334925 3180.873405,1338.021686"/>
    <poly id="1029279064" type="building.roof" color="255,230,230" fill="1" layer="-1.00" shape="2255.654428,790.440263 2252.921792,775.649204 2248.433650,776.481390 2251.159065,791.261201 2255.654428,790.440263"/>
    <poly id="1029314813" type="landuse.construction" color="194,194,130" fill="1" layer="-3.00" shape="1873.274952,964.860219 1871.568522,897.765613 1875.020606,894.157558 1869.078716,790.420731 1864.762560,786.564407 1861.857059,730.978155 1853.726058,705.796696 1849.244353,699.947323 1855.197855,667.865427 1874.481196,664.925847 1913.381625,950.769966 1873.274952,964.860219"/>
    <poly id="1035870772" type="building.yes" color="255,230,230" fill="1" layer="-1.00" shape="2391.759775,518.056859 2391.514756,518.463884 2387.582280,516.025971 2387.507659,515.624395 2377.359974,509.985415 2383.959764,498.206050 2384.702990,498.619485 2389.198261,496.142040 2399.584277,472.844742 2400.226906,471.388546 2406.307175,475.076444 2406.595982,474.714669 2410.735899,477.189628 2410.631632,477.621386 2413.355306,479.081709 2391.759775,518.056859"/>
    <poly id="1035870773" type="building.yes" color="255,230,230" fill="1" layer="-1.00" shape="2377.359974,509.985415 2376.946259,510.267150 2364.979377,503.706480 2363.690938,497.579774 2364.228186,497.455883 2362.534393,487.786421 2361.834299,487.874070 2361.560336,486.979761 2362.426035,486.772749 2362.015576,484.775324 2361.285962,484.851332 2361.014167,483.834762 2361.743190,483.792097 2361.231801,480.781132 2360.590743,480.892065 2360.380290,480.187890 2361.053823,479.921879 2360.740530,477.892823 2359.914733,477.944889 2359.675747,477.173500 2360.407726,476.964116 2358.930541,467.231788 2358.327021,467.321150 2357.300353,461.099025 2357.942852,460.487801 2357.205257,458.918183 2365.274369,453.124172 2366.230952,454.497547 2367.095928,453.912506 2372.494999,457.043498 2372.611831,457.579241 2393.488293,469.623535 2394.091222,469.567520 2399.584277,472.844742 2389.198261,496.142040 2384.702990,498.619485 2383.959764,498.206050 2377.359974,509.985415"/>
    <poly id="1037113819" type="building.yes" color="255,230,230" fill="1" layer="-1.00" shape="2787.505858,1116.743472 2777.469458,1130.807123 2784.799884,1136.007557 2794.836096,1121.955033 2787.505858,1116.743472"/>
    <poly id="1037113819#1" type="historic.castle" color="128,255,128" fill="1" layer="-1.00" shape="2787.505858,1116.743472 2777.469458,1130.807123 2784.799884,1136.007557 2794.836096,1121.955033 2787.505858,1116.743472"/>
    <poly id="104191092" type="building.apartments" color="255,230,230" fill="1" layer="-1.00" shape="3192.050575,525.814654 3206.302923,544.981511 3209.456585,549.396230 3217.572144,560.581712 3237.721974,543.753333 3210.339369,512.077120 3192.050575,525.814654"/>
    <poly id="104191093" type="building.apartments" color="255,230,230" fill="1" layer="-1.00" shape="3191.593571,602.922273 3199.677725,595.495313 3203.852915,600.962286 3210.061702,596.181295 3214.616423,602.033082 3206.894574,607.898834 3210.555023,612.645045 3210.412834,613.531958 3207.969857,615.089296 3210.461094,618.313645 3209.081155,619.434145 3211.424013,622.644723 3208.528508,625.405852 3205.939431,621.835091 3205.136327,621.865204 3195.675199,609.466033 3195.820565,608.401285 3191.593571,602.922273"/>
    <poly id="104191095" type="building.yes" color="255,230,230" fill="1" layer="-1.00" shape="3171.169949,569.814109 3178.663861,583.767972 3191.305513,603.239551 3191.593571,602.922273 3199.677725,595.495313 3200.668388,594.534624 3197.012918,590.755792 3197.682628,590.289683 3199.567364,590.445679 3201.106844,589.961767 3202.214902,588.669631 3202.828806,587.168533 3199.833627,583.034604 3209.137418,575.974126 3205.919940,570.557628 3209.973028,567.061157 3201.305190,555.176484 3198.151327,550.772883 3197.082715,551.520934 3196.852343,551.105442 3186.394549,558.701221 3185.916363,558.014463 3181.209345,561.510379 3181.680897,562.152545 3171.169949,569.814109"/>
    <poly id="104909869" type="building.yes" color="255,230,230" fill="1" layer="-1.00" shape="2481.255020,511.317437 2495.840854,520.204076 2496.125183,520.931804 2508.000300,528.047033 2508.678105,527.959005 2522.720829,536.458054 2522.613397,537.067644 2535.046922,544.537511 2535.473922,544.344969 2544.083102,549.567772 2549.035099,541.461661 2549.518371,541.448010 2556.336740,530.350924 2556.028553,529.711714 2561.149350,521.308422 2560.834449,521.047109 2561.399986,520.167705 2542.715828,508.984464 2525.134686,498.454611 2514.354991,492.003654 2511.060772,490.032834 2500.510751,483.619336 2498.762000,482.498708 2491.382831,494.631009 2481.446465,510.998410 2481.255020,511.317437"/>
    <poly id="104909870" type="building.yes" color="255,230,230" fill="1" layer="-1.00" shape="2522.906813,523.475356 2540.508390,534.105631 2547.275537,522.963152 2529.673937,512.332857 2522.906813,523.475356"/>
    <poly id="104909871" type="building.yes" color="255,230,230" fill="1" layer="-1.00" shape="2512.872189,514.825120 2520.162162,503.113751 2504.204277,493.235409 2495.876294,506.907399 2509.590835,515.478412 2510.992295,513.557623 2512.872189,514.825120"/>
    <poly id="104909873" type="building.yes" color="255,230,230" fill="1" layer="-1.00" shape="2711.533131,430.400645 2723.642132,443.579884 2740.328258,427.977859 2728.291770,414.899939 2711.533131,430.400645"/>
    <poly id="104909873#1" type="historic.castle" color="128,255,128" fill="1" layer="-1.00" shape="2711.533131,430.400645 2723.642132,443.579884 2740.328258,427.977859 2728.291770,414.899939 2711.533131,430.400645"/>
    <poly id="107221991" type="building.yes" color="255,230,230" fill="1" layer="-1.00" shape="2691.881244,599.769756 2706.852403,591.564071 2718.305935,604.809477 2718.628856,608.795526 2710.117377,616.471261 2692.035751,602.363037 2691.881244,599.769756"/>
    <poly id="107221992" type="building.yes" color="255,230,230" fill="1" layer="-1.00" shape="2772.575974,677.832300 2774.542739,680.057598 2773.464405,680.938970 2765.895284,687.441756 2740.068034,660.131627 2748.300939,651.405871 2751.473195,655.209161 2749.710644,656.956693 2757.968012,665.642437 2759.619329,663.881809 2763.224216,667.592744 2761.452654,669.429058 2769.622820,678.002085 2771.258489,676.285654 2772.575974,677.832300"/>
    <poly id="107221995" type="building.yes" color="255,230,230" fill="1" layer="-1.00" shape="2867.161382,621.380197 2875.777075,613.706547 2876.987571,612.916494 2886.111205,630.946015 2869.614605,640.925194 2856.238642,630.913958 2861.804554,625.909897 2863.198090,624.856267 2866.335417,627.280346 2867.020745,626.770005 2865.833623,625.414669 2866.046578,624.306647 2868.683296,623.130636 2867.161382,621.380197"/>
    <poly id="107221999" type="building.yes" color="255,230,230" fill="1" layer="-1.00" shape="2754.828855,644.117373 2750.864678,648.482956 2748.300939,651.405871 2740.068034,660.131627 2733.436865,652.764560 2741.076194,645.240110 2743.495927,642.892773 2749.175225,637.356952 2754.828855,644.117373"/>
    <poly id="107222003" type="building.yes" color="255,230,230" fill="1" layer="-1.00" shape="2712.011307,576.435097 2712.608804,577.101701 2725.338749,591.281521 2725.411652,591.360646 2739.198136,606.715591 2740.050688,607.664691 2732.082556,614.871984 2731.432999,615.460804 2712.620668,632.815033 2707.886553,629.084039 2706.955954,628.344800 2694.234013,618.312236 2693.603838,617.811826 2679.093740,606.368833 2678.522202,605.913940 2674.074009,602.399307 2674.701541,595.528327 2678.993129,593.225376 2679.713413,592.837934 2695.934676,584.120786 2696.699931,583.711910 2703.400119,580.106530 2703.671539,580.722858 2711.358868,576.768151 2712.011307,576.435097"/>
    <poly id="107222007" type="building.yes" color="255,230,230" fill="1" layer="-1.00" shape="2764.768640,635.522087 2786.236773,660.164169 2789.033195,663.371525 2775.248283,675.489474 2750.864678,648.482956 2754.828855,644.117373 2763.621462,636.513417 2764.013891,636.175740 2764.768640,635.522087"/>
    <poly id="107222008" type="building.yes" color="255,230,230" fill="1" layer="-1.00" shape="2749.175225,637.356952 2746.978825,634.671732 2748.810525,633.214502 2749.413531,632.736036 2735.833236,616.239561 2735.486171,616.533575 2733.585236,618.122995 2731.432999,615.460804 2712.620668,632.815033 2716.843885,636.859366 2716.688388,637.245735 2720.385432,640.791509 2721.028482,641.403333 2728.729418,648.789423 2729.155230,648.663583 2733.436865,652.764560 2741.076194,645.240110 2738.836715,642.887671 2741.247041,640.651348 2743.495927,642.892773 2749.175225,637.356952"/>
    <poly id="107222012" type="building.yes" color="255,230,230" fill="1" layer="-1.00" shape="2839.681894,616.743479 2841.876741,614.925848 2845.325363,611.974266 2850.584427,607.509518 2851.523832,609.004973 2852.747409,609.982938 2853.668078,608.776343 2855.316576,608.427699 2856.691004,608.863562 2857.646651,610.281481 2857.773045,611.528968 2858.920450,612.194268 2860.221274,610.505249 2860.573697,610.745011 2862.655646,611.927283 2863.467172,613.509407 2857.245256,623.215882 2861.804554,625.909897 2856.238642,630.913958 2845.703321,624.544535 2844.517206,626.469083 2832.381354,625.263356 2831.388957,623.822551 2839.681894,616.743479"/>
    <poly id="107222888" type="building.yes" color="255,230,230" fill="1" layer="-1.00" shape="2603.813389,603.184648 2601.475375,604.699633 2592.784570,610.348846 2592.498086,609.743374 2580.990495,617.088094 2570.572745,623.740640 2571.056450,624.538624 2562.976991,629.242582 2559.030954,631.340512 2554.255313,621.994243 2553.850755,621.342203 2552.857423,620.368394 2552.697570,618.909076 2554.432575,617.872557 2551.398898,613.371400 2544.633521,609.359860 2540.588950,606.964319 2532.319189,603.137316 2542.834876,579.675793 2542.400524,579.445714 2545.030378,573.633164 2545.547632,573.798007 2554.265484,554.496110 2560.027971,561.002543 2562.366424,563.645738 2558.821548,566.584659 2563.149566,571.431242 2566.381640,568.531239 2569.058775,571.769717 2579.226481,564.556815 2585.186677,573.735146 2578.204628,578.569769 2581.393716,583.107057 2586.717688,590.450707 2588.806010,589.186995 2586.388584,585.552869 2588.636271,584.102981 2590.943982,582.620806 2603.813389,603.184648"/>
    <poly id="107222888#1" type="historic.castle" color="128,255,128" fill="1" layer="-1.00" shape="2603.813389,603.184648 2601.475375,604.699633 2592.784570,610.348846 2592.498086,609.743374 2580.990495,617.088094 2570.572745,623.740640 2571.056450,624.538624 2562.976991,629.242582 2559.030954,631.340512 2554.255313,621.994243 2553.850755,621.342203 2552.857423,620.368394 2552.697570,618.909076 2554.432575,617.872557 2551.398898,613.371400 2544.633521,609.359860 2540.588950,606.964319 2532.319189,603.137316 2542.834876,579.675793 2542.400524,579.445714 2545.030378,573.633164 2545.547632,573.798007 2554.265484,554.496110 2560.027971,561.002543 2562.366424,563.645738 2558.821548,566.584659 2563.149566,571.431242 2566.381640,568.531239 2569.058775,571.769717 2579.226481,564.556815 2585.186677,573.735146 2578.204628,578.569769 2581.393716,583.107057 2586.717688,590.450707 2588.806010,589.186995 2586.388584,585.552869 2588.636271,584.102981 2590.943982,582.620806 2603.813389,603.184648"/>
    <poly id="107222888#2" type="tourism.attraction" color="207,245,201" fill="1" layer="-2.00" shape="2603.813389,603.184648 2601.475375,604.699633 2592.784570,610.348846 2592.498086,609.743374 2580.990495,617.088094 2570.572745,623.740640 2571.056450,624.538624 2562.976991,629.242582 2559.030954,631.340512 2554.255313,621.994243 2553.850755,621.342203 2552.857423,620.368394 2552.697570,618.909076 2554.432575,617.872557 2551.398898,613.371400 2544.633521,609.359860 2540.588950,606.964319 2532.319189,603.137316 2542.834876,579.675793 2542.400524,579.445714 2545.030378,573.633164 2545.547632,573.798007 2554.265484,554.496110 2560.027971,561.002543 2562.366424,563.645738 2558.821548,566.584659 2563.149566,571.431242 2566.381640,568.531239 2569.058775,571.769717 2579.226481,564.556815 2585.186677,573.735146 2578.204628,578.569769 2581.393716,583.107057 2586.717688,590.450707 2588.806010,589.186995 2586.388584,585.552869 2588.636271,584.102981 2590.943982,582.620806 2603.813389,603.184648"/>
    <poly id="107222889" type="building.yes" color="255,230,230" fill="1" layer="-1.00" shape="2563.214233,578.247820 2571.434198,589.478673 2578.219766,598.627191 2570.990946,603.968872 2563.784623,609.299843 2555.883814,599.764629 2548.070148,590.342158 2563.214233,578.247820"/>
    <poly id="107222889#1" type="historic.castle" color="128,255,128" fill="1" layer="-1.00" shape="2563.214233,578.247820 2571.434198,589.478673 2578.219766,598.627191 2570.990946,603.968872 2563.784623,609.299843 2555.883814,599.764629 2548.070148,590.342158 2563.214233,578.247820"/>
    <poly id="107222889#2" type="tourism.attraction" color="207,245,201" fill="1" layer="-2.00" shape="2563.214233,578.247820 2571.434198,589.478673 2578.219766,598.627191 2570.990946,603.968872 2563.784623,609.299843 2555.883814,599.764629 2548.070148,590.342158 2563.214233,578.247820"/>
    <poly id="107670253" type="building.yes" color="255,230,230" fill="1" layer="-1.00" shape="2378.353873,595.990756 2397.634593,609.151953 2400.431690,608.145346 2411.860634,585.533661 2403.527514,581.083108 2392.303956,574.101953 2384.947069,584.578175 2378.353873,595.990756"/>
    <poly id="107670255" type="building.yes" color="255,230,230" fill="1" layer="-1.00" shape="2337.262086,569.445819 2360.566547,584.935200 2367.433206,573.605276 2372.114017,566.528199 2366.806503,563.687898 2364.191414,568.678044 2355.555742,563.266039 2355.038387,561.011001 2356.522348,558.624676 2342.968787,551.446655 2335.894561,564.007041 2334.524917,565.394765 2334.232455,566.801584 2334.590974,568.375598 2335.762840,569.341414 2337.262086,569.445819"/>
    <poly id="107670256" type="building.yes" color="255,230,230" fill="1" layer="-1.00" shape="2342.968787,551.446655 2356.522348,558.624676 2358.496796,554.979581 2359.431907,554.629263 2361.967332,555.808271 2365.900244,546.905670 2361.926631,545.111897 2364.584391,539.811198 2365.728893,539.386767 2366.850972,538.550568 2367.858450,536.633877 2354.962215,530.101219 2354.017821,529.717575 2342.342457,551.146479 2342.968787,551.446655"/>
    <poly id="107670258" type="building.yes" color="255,230,230" fill="1" layer="-1.00" shape="2365.297797,516.342334 2361.315919,517.528078 2354.962215,530.101219 2367.858450,536.633877 2369.678601,537.500014 2369.763472,537.323629 2373.952810,529.048196 2375.234399,529.693540 2378.607508,523.026884 2365.297797,516.342334"/>
    <poly id="107670259" type="building.university" color="255,230,230" fill="1" layer="-1.00" shape="2369.763472,537.323629 2380.404057,543.660663 2381.249421,542.085761 2390.127164,547.257499 2388.493954,550.097012 2374.159317,542.126793 2370.465859,548.420872 2368.195567,546.957490 2363.624498,556.226791 2370.689049,559.720862 2375.592985,550.957787 2386.291650,556.951200 2378.520870,570.232980 2387.016349,575.586944 2395.227282,561.790430 2409.292036,569.889335 2403.527514,581.083108 2411.860634,585.533661 2412.140563,585.672045 2428.724283,552.734140 2378.607508,523.026884 2375.234399,529.693540 2373.952810,529.048196 2369.763472,537.323629"/>
    <poly id="107670260" type="building.yes" color="255,230,230" fill="1" layer="-1.00" shape="2360.566547,584.935200 2378.353873,595.990756 2384.947069,584.578175 2382.360117,582.953517 2387.016349,575.586944 2378.520870,570.232980 2376.030090,568.632267 2371.306416,576.031007 2367.433206,573.605276 2360.566547,584.935200"/>
    <poly id="107701734" type="building.yes" color="255,230,230" fill="1" layer="-1.00" shape="2653.787781,469.465584 2686.221222,509.812085 2684.421900,511.536747 2683.771348,512.181147 2682.795164,511.496693 2680.744447,513.150176 2681.795232,514.236210 2677.157597,519.279191 2675.924139,517.600646 2671.950983,520.798717 2673.575718,523.040129 2669.045858,527.873788 2667.029279,530.951007 2655.563847,519.195336 2646.318233,507.556988 2630.604085,487.742987 2653.787781,469.465584"/>
    <poly id="107701734#1" type="historic.castle" color="128,255,128" fill="1" layer="-1.00" shape="2653.787781,469.465584 2686.221222,509.812085 2684.421900,511.536747 2683.771348,512.181147 2682.795164,511.496693 2680.744447,513.150176 2681.795232,514.236210 2677.157597,519.279191 2675.924139,517.600646 2671.950983,520.798717 2673.575718,523.040129 2669.045858,527.873788 2667.029279,530.951007 2655.563847,519.195336 2646.318233,507.556988 2630.604085,487.742987 2653.787781,469.465584"/>
    <poly id="107701735" type="building.apartments" color="255,230,230" fill="1" layer="-1.00" shape="2662.717076,536.500104 2665.806937,532.407983 2667.029279,530.951007 2655.563847,519.195336 2642.903293,525.752282 2636.304694,513.193738 2646.318233,507.556988 2630.604085,487.742987 2612.532899,501.441730 2623.473599,522.238162 2623.233028,522.812030 2627.545333,531.049421 2628.043069,531.058270 2639.315417,552.839031 2639.075438,553.379554 2643.733411,562.234604 2644.137929,562.052788 2655.965401,585.622363 2677.884472,574.504908 2673.912445,556.333891 2663.211786,557.989188 2659.362137,557.587179 2660.895481,553.267248 2662.781114,547.941830 2663.841467,548.071869 2667.156350,540.937375 2662.717076,536.500104"/>
    <poly id="107701736" type="building.yes" color="255,230,230" fill="1" layer="-1.00" shape="2661.828593,514.170157 2673.073734,504.886363 2658.334000,486.279257 2647.282826,496.355918 2661.828593,514.170157"/>
    <poly id="107701736#1" type="historic.castle" color="128,255,128" fill="1" layer="-1.00" shape="2661.828593,514.170157 2673.073734,504.886363 2658.334000,486.279257 2647.282826,496.355918 2661.828593,514.170157"/>
    <poly id="107701737" type="building.apartments" color="255,230,230" fill="1" layer="-1.00" shape="2650.862861,536.578368 2657.693515,532.741772 2659.610565,532.753628 2661.966215,535.263753 2661.908941,537.230649 2656.832482,548.147347 2651.405995,537.377415 2650.862861,536.578368"/>
    <poly id="107702030" type="building.yes" color="255,230,230" fill="1" layer="-1.00" shape="2823.894766,517.643939 2827.169103,524.061858 2807.051670,534.132379 2803.195370,526.592292 2805.766365,526.604725 2823.894766,517.643939"/>
    <poly id="107702031" type="building.yes" color="255,230,230" fill="1" layer="-1.00" shape="2827.183701,490.285119 2839.343148,518.130382 2833.510586,520.995027 2820.977032,496.211728 2823.195100,494.761402 2822.054482,492.461861 2827.183701,490.285119"/>
    <poly id="107702032" type="building.yes" color="255,230,230" fill="1" layer="-1.00" shape="2790.188877,551.732332 2790.593995,551.517183 2801.487206,545.729594 2837.917476,528.077982 2840.657702,534.441921 2841.172583,535.574029 2848.046866,533.050379 2846.110955,527.423447 2853.554696,524.220623 2833.529392,478.223763 2831.564539,474.219575 2830.010179,472.201734 2828.042378,470.865855 2826.045766,470.730226 2823.646206,470.687484 2821.418919,472.237709 2810.369285,480.957675 2809.886601,480.937961 2787.181429,498.189276 2786.869033,499.039813 2771.365342,513.762181 2773.439875,517.868364 2775.155426,521.267712 2774.320724,521.819877 2774.958943,523.120947 2776.521848,526.328569 2775.696555,526.769721 2781.661189,538.605586 2782.537097,538.243164 2784.263734,541.853958 2784.793878,542.964096 2785.500901,542.487486 2790.188877,551.732332"/>
    <poly id="107702033" type="building.yes" color="255,230,230" fill="1" layer="-1.00" shape="2814.095582,498.301676 2817.729812,505.793342 2799.939551,514.960297 2798.397621,516.000182 2793.860593,507.458462 2798.006186,504.597089 2799.277852,506.632123 2808.926576,501.878610 2808.433879,501.169390 2814.095582,498.301676"/>
    <poly id="107705333" type="building.yes" color="255,230,230" fill="1" layer="-1.00" shape="2788.387663,674.166892 2797.512771,665.835110 2828.971448,702.796337 2819.040188,710.913581 2788.387663,674.166892"/>
    <poly id="107705334" type="building.yes" color="255,230,230" fill="1" layer="-1.00" shape="2801.758450,711.172797 2803.973516,714.058500 2806.359772,711.921838 2811.250473,717.701451 2807.688521,720.762215 2813.763458,728.475249 2831.156762,714.442641 2834.282726,712.497059 2842.449755,705.804888 2824.447204,683.536893 2798.438516,653.910681 2796.024807,656.335930 2789.033195,663.371525 2775.248283,675.489474 2803.643819,709.205105 2801.758450,711.172797"/>
    <poly id="107707488" type="building.apartments" color="255,230,230" fill="1" layer="-1.00" shape="2684.421900,511.536747 2700.625401,528.057517 2689.959089,536.551046 2675.352746,521.315067 2677.157597,519.279191 2681.795232,514.236210 2683.771348,512.181147 2684.421900,511.536747"/>
    <poly id="107707489" type="building.apartments" color="255,230,230" fill="1" layer="-1.00" shape="2689.959089,536.551046 2683.308464,542.380957 2674.129388,532.856194 2669.045858,527.873788 2673.575718,523.040129 2675.352746,521.315067 2689.959089,536.551046"/>
    <poly id="107707490" type="building.apartments" color="255,230,230" fill="1" layer="-1.00" shape="2685.820325,517.309712 2688.325735,519.755803 2683.257588,523.935022 2681.542638,522.170084 2685.820325,517.309712"/>
    <poly id="107803506" type="building.apartments" color="255,230,230" fill="1" layer="-1.00" shape="3143.110619,526.507622 3150.084991,537.105583 3178.877753,517.340597 3160.236522,493.837110 3154.785066,497.820064 3150.409565,492.327315 3131.092057,507.080650 3137.517450,517.212940 3142.825939,513.327480 3149.233756,508.638924 3148.844908,507.942648 3154.107529,504.545579 3161.988834,515.126407 3157.234364,518.365777 3156.741711,517.656527 3149.651628,522.266174 3143.110619,526.507622"/>
    <poly id="107808182" type="building.apartments" color="255,230,230" fill="1" layer="-1.00" shape="2921.237156,743.943646 2920.516477,744.353286 2909.306444,751.669303 2892.070339,730.615508 2892.429492,729.643510 2893.611340,729.208733 2904.977198,721.906581 2911.978198,731.437379 2910.492658,733.067501 2912.412401,735.425428 2914.045024,734.298247 2915.363845,735.767124 2917.958828,734.012248 2920.230974,737.443806 2917.934224,739.559781 2921.237156,743.943646"/>
    <poly id="107808183" type="building.yes" color="255,230,230" fill="1" layer="-1.00" shape="2920.412114,765.209131 2925.983794,772.379645 2925.606213,773.551439 2929.583367,774.711942 2929.876658,773.683182 2938.730274,770.994817 2939.127935,772.447273 2945.236235,770.777304 2944.892558,769.214629 2953.267785,766.684527 2952.508016,764.703057 2951.405550,761.937202 2950.943308,760.772666 2949.363384,761.444932 2948.402153,759.092970 2950.039722,758.521795 2946.921889,750.427741 2941.618132,752.401130 2941.176870,752.560033 2941.016451,757.804954 2933.297614,759.779752 2931.732867,758.350957 2920.412114,765.209131"/>
    <poly id="107808187" type="building.apartments" color="255,230,230" fill="1" layer="-1.00" shape="2939.679112,748.208349 2929.873560,755.938510 2931.732867,758.350957 2920.412114,765.209131 2909.306444,751.669303 2920.516477,744.353286 2924.381997,748.858367 2925.107234,748.193090 2924.810500,746.497835 2924.788522,745.229971 2925.756929,743.846349 2927.033566,743.513332 2928.380620,743.815307 2929.630207,744.582508 2931.738564,743.030206 2929.644714,739.601822 2934.769011,736.858067 2937.887870,744.062677 2939.536487,747.872260 2939.679112,748.208349"/>
    <poly id="107808193" type="building.apartments" color="255,230,230" fill="1" layer="-1.00" shape="2953.156162,744.612945 2958.526817,754.303732 2974.363958,740.877530 2971.045492,737.783065 2957.610629,746.927153 2955.498475,743.276069 2953.156162,744.612945"/>
    <poly id="107808196" type="building.apartments" color="255,230,230" fill="1" layer="-1.00" shape="2940.394831,713.076544 2934.226657,703.516090 2948.834520,694.437339 2953.940236,699.820659 2953.662203,699.993590 2976.825399,724.533241 2968.412400,730.842819 2965.870761,727.940106 2963.828149,729.971651 2966.301649,732.528483 2959.046561,738.080457 2957.114254,736.011363 2955.787981,737.043933 2952.497665,731.537336 2957.462737,726.889551 2950.420571,719.670544 2947.149648,722.658586 2942.623590,716.440628 2942.532775,715.282718 2944.779922,713.032450 2942.775495,710.839775 2940.394831,713.076544"/>
    <poly id="107808204" type="building.apartments" color="255,230,230" fill="1" layer="-1.00" shape="2944.191108,743.963846 2946.921889,750.427741 2950.039722,758.521795 2950.943308,760.772666 2951.405550,761.937202 2954.491812,760.135514 2956.066150,762.276050 2952.508016,764.703057 2953.267785,766.684527 2955.017388,772.330416 2962.150177,768.632994 2973.020848,759.098507 2991.018503,738.283947 2990.698783,737.877988 2990.293381,737.692863 2990.148577,737.479034 2987.809218,734.068484 2987.736716,733.967126 2987.609850,733.164354 2979.704495,721.849534 2978.627921,722.630836 2979.041637,723.183008 2976.825399,724.533241 2968.412400,730.842819 2966.301649,732.528483 2959.046561,738.080457 2957.495050,739.242428 2955.787981,737.043933 2944.191108,743.963846"/>