<?xml version="1.0" encoding="UTF-8"?>

<!-- generated on 2022-03-05 00:09:44 by Eclipse SUMO duarouter Version 1.12.0
<configuration xmlns:xsi="http://www.w3.org/2001/XMLSchema-instance" xsi:noNamespaceSchemaLocation="http://sumo.dlr.de/xsd/duarouterConfiguration.xsd">

    <input>
        <net-file value="C:\Users\Marku\Sumo\2022-03-05-00-09-37\osm.net.xml"/>
        <route-files value="C:\Users\Marku\Sumo\2022-03-05-00-09-37\osm.passenger.trips.xml"/>
    </input>

    <output>
        <output-file value="C:\Users\Marku\Sumo\2022-03-05-00-09-37\osm.passenger.trips.xml.tmp"/>
        <write-trips value="true"/>
    </output>

    <time>
        <begin value="0"/>
        <end value="3600"/>
    </time>

    <report>
        <no-warnings value="true"/>
        <ignore-errors value="true"/>
        <no-step-log value="true"/>
    </report>

</configuration>
-->

<routes xmlns:xsi="http://www.w3.org/2001/XMLSchema-instance" xsi:noNamespaceSchemaLocation="http://sumo.dlr.de/xsd/routes_file.xsd">
    <vType id="veh_passenger" vClass="passenger"/>
    <trip id="veh0" type="veh_passenger" depart="0.00" departLane="best" from="4952816#0" to="-23148524"/>
    <trip id="veh1" type="veh_passenger" depart="1.39" departLane="best" from="171949398" to="170511029#1"/>
    <trip id="veh2" type="veh_passenger" depart="2.77" departLane="best" departSpeed="max" from="5010637#0" to="4998695#1"/>
    <trip id="veh4" type="veh_passenger" depart="5.55" departLane="best" departSpeed="max" from="29065909#0" to="-25527470#0"/>
    <trip id="veh5" type="veh_passenger" depart="6.93" departLane="best" departSpeed="max" from="122929941#0" to="349488863#1"/>
    <trip id="veh6" type="veh_passenger" depart="8.32" departLane="best" from="-190494839#1" to="124875756#0"/>
    <trip id="veh7" type="veh_passenger" depart="9.70" departLane="best" from="4952861#0" to="354021079#2"/>
    <trip id="veh8" type="veh_passenger" depart="11.09" departLane="best" departSpeed="max" from="122929941#0" to="42726878#1"/>
    <trip id="veh9" type="veh_passenger" depart="12.48" departLane="best" from="679596249" to="-113300211#1"/>
    <trip id="veh10" type="veh_passenger" depart="13.86" departLane="best" from="655674848#0" to="4998714#7"/>
    <trip id="veh11" type="veh_passenger" depart="15.25" departLane="best" from="25943353" to="-9567011#0"/>
    <trip id="veh12" type="veh_passenger" depart="16.64" departLane="best" from="9226587#1" to="26088764#1"/>
    <trip id="veh13" type="veh_passenger" depart="18.02" departLane="best" from="-4583400#0" to="-4952861#2"/>
    <trip id="veh15" type="veh_passenger" depart="20.79" departLane="best" from="655674852#0" to="5010636#0"/>
    <trip id="veh16" type="veh_passenger" depart="22.18" departLane="best" from="27033537#0" to="355985162#0"/>
    <trip id="veh17" type="veh_passenger" depart="23.57" departLane="best" from="694684030" to="4583426#6"/>
    <trip id="veh18" type="veh_passenger" depart="24.95" departLane="best" from="8079193" to="397523793"/>
    <trip id="veh19" type="veh_passenger" depart="26.34" departLane="best" from="4998714#7" to="-271227047#1"/>
    <trip id="veh20" type="veh_passenger" depart="27.73" departLane="best" departSpeed="max" from="124875749" to="25527470#1"/>
    <trip id="veh21" type="veh_passenger" depart="29.11" departLane="best" from="-4952861#1" to="237926039"/>
    <trip id="veh23" type="veh_passenger" depart="31.88" departLane="best" from="170511032#1" to="8900336#4"/>
    <trip id="veh24" type="veh_passenger" depart="33.27" departLane="best" from="4952856#4" to="455386120"/>
    <trip id="veh25" type="veh_passenger" depart="34.66" departLane="best" from="-877619596#1" to="5010636#0"/>
    <trip id="veh26" type="veh_passenger" depart="36.04" departLane="best" departSpeed="max" from="-8080546" to="277877545"/>
    <trip id="veh27" type="veh_passenger" depart="37.43" departLane="best" from="977070593#0" to="4952856#3"/>
    <trip id="veh28" type="veh_passenger" depart="38.82" departLane="best" from="355985161" to="4998703#2"/>
    <trip id="veh29" type="veh_passenger" depart="40.20" departLane="best" from="790323075#0" to="576889192#1"/>
    <trip id="veh30" type="veh_passenger" depart="41.59" departLane="best" departSpeed="max" from="124875749" to="-25527470#1"/>
    <trip id="veh31" type="veh_passenger" depart="42.97" departLane="best" from="113296995#0" to="899096765"/>
    <trip id="veh32" type="veh_passenger" depart="44.36" departLane="best" from="8083974#1" to="25949689"/>
    <trip id="veh33" type="veh_passenger" depart="45.75" departLane="best" departSpeed="max" from="4952871" to="28007162#1"/>
    <trip id="veh34" type="veh_passenger" depart="47.13" departLane="best" departSpeed="max" from="877619596#0" to="31260904"/>
    <trip id="veh35" type="veh_passenger" depart="48.52" departLane="best" from="170511031#3" to="179638536#0"/>
    <trip id="veh36" type="veh_passenger" depart="49.91" departLane="best" from="406390906#0" to="8089390#1"/>
    <trip id="veh37" type="veh_passenger" depart="51.29" departLane="best" from="27608418#2" to="158722443#0"/>
    <trip id="veh38" type="veh_passenger" depart="52.68" departLane="best" from="977070593#4" to="349539109#0"/>
    <trip id="veh39" type="veh_passenger" depart="54.06" departLane="best" from="-442794477" to="-27368746#0"/>
    <trip id="veh42" type="veh_passenger" depart="58.22" departLane="best" from="-28151969" to="277887337#1"/>
    <trip id="veh43" type="veh_passenger" depart="59.61" departLane="best" from="977070593#3" to="35302222#4"/>
    <trip id="veh44" type="veh_passenger" depart="61.00" departLane="best" from="95194308#2" to="8072718#1"/>
    <trip id="veh45" type="veh_passenger" depart="62.38" departLane="best" from="-165778776" to="5010631#3"/>
    <trip id="veh46" type="veh_passenger" depart="63.77" departLane="best" departSpeed="max" from="4998703#0" to="354021079#2"/>
    <trip id="veh47" type="veh_passenger" depart="65.15" departLane="best" from="170511032#1" to="4952856#4"/>
    <trip id="veh48" type="veh_passenger" depart="66.54" departLane="best" departSpeed="max" from="-4952863" to="31131383"/>
    <trip id="veh49" type="veh_passenger" depart="67.93" departLane="best" from="30979875#3" to="912905968#0"/>
    <trip id="veh50" type="veh_passenger" depart="69.31" departLane="best" from="868062640" to="8080525"/>
    <trip id="veh51" type="veh_passenger" depart="70.70" departLane="best" from="208876059#5" to="4952856#3"/>
    <trip id="veh52" type="veh_passenger" depart="72.09" departLane="best" from="4469956#2" to="-9567011#0"/>
    <trip id="veh53" type="veh_passenger" depart="73.47" departLane="best" from="533387419" to="354021079#2"/>
    <trip id="veh54" type="veh_passenger" depart="74.86" departLane="best" departSpeed="max" from="539005630#0" to="354021079#0"/>
    <trip id="veh55" type="veh_passenger" depart="76.24" departLane="best" departSpeed="max" from="-172986927" to="8900171#0"/>
    <trip id="veh56" type="veh_passenger" depart="77.63" departLane="best" from="8089315#1" to="694681348#4"/>
    <trip id="veh57" type="veh_passenger" depart="79.02" departLane="best" departSpeed="max" from="23148524" to="-30979875#0"/>
    <trip id="veh59" type="veh_passenger" depart="81.79" departLane="best" departSpeed="max" from="29065909#0" to="15243450#1"/>
    <trip id="veh61" type="veh_passenger" depart="84.56" departLane="best" from="113145582#1" to="25949687"/>
    <trip id="veh62" type="veh_passenger" depart="85.95" departLane="best" from="977070593#3" to="4952863"/>
    <trip id="veh63" type="veh_passenger" depart="87.33" departLane="best" departSpeed="max" from="-4998704" to="170511031#1"/>
    <trip id="veh64" type="veh_passenger" depart="88.72" departLane="best" departSpeed="max" from="124875749" to="158722443#0"/>
    <trip id="veh65" type="veh_passenger" depart="90.11" departLane="best" from="-328764040#0" to="469205306#0"/>
    <trip id="veh66" type="veh_passenger" depart="91.49" departLane="best" from="8072955#0" to="-35302217#1"/>
    <trip id="veh67" type="veh_passenger" depart="92.88" departLane="best" from="113300209#2" to="-84192046#0"/>
    <trip id="veh68" type="veh_passenger" depart="94.27" departLane="best" from="31247424#1" to="576889192#1"/>
    <trip id="veh69" type="veh_passenger" depart="95.65" departLane="best" from="655674852#0" to="113296985"/>
    <trip id="veh70" type="veh_passenger" depart="97.04" departLane="best" from="-4583445#3" to="30979875#1"/>
    <trip id="veh71" type="veh_passenger" depart="98.42" departLane="best" departSpeed="max" from="29065909#0" to="31725051#2"/>
    <trip id="veh72" type="veh_passenger" depart="99.81" departLane="best" from="5010636#1" to="4998691#1"/>
    <trip id="veh73" type="veh_passenger" depart="101.20" departLane="best" from="9567011#5" to="-4997666#0"/>
    <trip id="veh74" type="veh_passenger" depart="102.58" departLane="best" from="277887337#1" to="26153832#0"/>
    <trip id="veh75" type="veh_passenger" depart="103.97" departLane="best" from="8079193" to="179638536#1"/>
    <trip id="veh76" type="veh_passenger" depart="105.36" departLane="best" from="10130639#0" to="31247423#7"/>
    <trip id="veh77" type="veh_passenger" depart="106.74" departLane="best" departSpeed="max" from="29065909#0" to="238045925"/>
    <trip id="veh78" type="veh_passenger" depart="108.13" departLane="best" from="147396079#1" to="872355863"/>
    <trip id="veh79" type="veh_passenger" depart="109.51" departLane="best" from="30322208#0" to="8072718#2"/>
    <trip id="veh81" type="veh_passenger" depart="112.29" departLane="best" from="991807353" to="694684030"/>
    <trip id="veh82" type="veh_passenger" depart="113.67" departLane="best" from="95194308#1" to="872355863"/>
    <trip id="veh84" type="veh_passenger" depart="116.45" departLane="best" from="328764037#1" to="15243450#3"/>
    <trip id="veh85" type="veh_passenger" depart="117.83" departLane="best" from="27033537#0" to="977070592#0"/>
    <trip id="veh86" type="veh_passenger" depart="119.22" departLane="best" from="170511031#3" to="576889192#1"/>
    <trip id="veh88" type="veh_passenger" depart="121.99" departLane="best" from="9226587#1" to="977070593#3"/>
    <trip id="veh89" type="veh_passenger" depart="123.38" departLane="best" from="355985161" to="5010631#1"/>
    <trip id="veh92" type="veh_passenger" depart="127.54" departLane="best" from="339590033#2" to="790323075#2"/>
    <trip id="veh93" type="veh_passenger" depart="128.92" departLane="best" departSpeed="max" from="-8080546" to="9226541#2"/>
    <trip id="veh94" type="veh_passenger" depart="130.31" departLane="best" from="-35302221#1" to="113145641#0"/>
    <trip id="veh95" type="veh_passenger" depart="131.69" departLane="best" departSpeed="max" from="44024903#0" to="4998691#2"/>
    <trip id="veh96" type="veh_passenger" depart="133.08" departLane="best" from="124875757" to="-577206483#2"/>
    <trip id="veh97" type="veh_passenger" depart="134.47" departLane="best" from="82235422" to="172986927"/>
    <trip id="veh98" type="veh_passenger" depart="135.85" departLane="best" departSpeed="max" from="44024903#0" to="4583426#6"/>
    <trip id="veh99" type="veh_passenger" depart="137.24" departLane="best" departSpeed="max" from="29065909#0" to="406390904"/>
    <trip id="veh100" type="veh_passenger" depart="138.63" departLane="best" from="35302218" to="8900171#4"/>
    <trip id="veh101" type="veh_passenger" depart="140.01" departLane="best" from="113145601" to="4998733"/>
    <trip id="veh103" type="veh_passenger" depart="142.78" departLane="best" from="4997688#3" to="25943352#2"/>
    <trip id="veh104" type="veh_passenger" depart="144.17" departLane="best" departSpeed="max" from="23486469" to="5010658#2"/>
    <trip id="veh105" type="veh_passenger" depart="145.56" departLane="best" from="-328764040#0" to="31260904"/>
    <trip id="veh106" type="veh_passenger" depart="146.94" departLane="best" from="-328764040#1" to="15243450#3"/>
    <trip id="veh107" type="veh_passenger" depart="148.33" departLane="best" from="8089315#3" to="8080532#1"/>
    <trip id="veh109" type="veh_passenger" depart="151.10" departLane="best" from="73236998#0" to="4998720#0"/>
    <trip id="veh110" type="veh_passenger" depart="152.49" departLane="best" from="4952862" to="-124875749"/>
    <trip id="veh111" type="veh_passenger" depart="153.87" departLane="best" from="680874631#0" to="25943352#0"/>
    <trip id="veh112" type="veh_passenger" depart="155.26" departLane="best" from="4952878#1" to="898564142#1"/>
    <trip id="veh113" type="veh_passenger" depart="156.65" departLane="best" departSpeed="max" from="-4952862" to="355985162#0"/>
    <trip id="veh115" type="veh_passenger" depart="159.42" departLane="best" from="328764038#1" to="82235424#0"/>
    <trip id="veh116" type="veh_passenger" depart="160.81" departLane="best" from="790323075#2" to="-4583564#1"/>
    <trip id="veh117" type="veh_passenger" depart="162.19" departLane="best" departSpeed="max" from="29065909#0" to="237926039"/>
    <trip id="veh119" type="veh_passenger" depart="164.96" departLane="best" from="5010645#0" to="355985162#0"/>
    <trip id="veh120" type="veh_passenger" depart="166.35" departLane="best" from="29065909#2" to="-147396079#1"/>
    <trip id="veh121" type="veh_passenger" depart="167.74" departLane="best" from="-328764040#2" to="8080546"/>
    <trip id="veh122" type="veh_passenger" depart="169.12" departLane="best" from="84192046#1" to="354021079#2"/>
    <trip id="veh123" type="veh_passenger" depart="170.51" departLane="best" from="73236998#0" to="406390894#1"/>
    <trip id="veh124" type="veh_passenger" depart="171.90" departLane="best" departSpeed="max" from="-778380373" to="-8089369"/>
    <trip id="veh125" type="veh_passenger" depart="173.28" departLane="best" departSpeed="max" from="23148524" to="8103726#1"/>
    <trip id="veh126" type="veh_passenger" depart="174.67" departLane="best" from="577206483#1" to="8072718#1"/>
    <trip id="veh127" type="veh_passenger" depart="176.05" departLane="best" departSpeed="max" from="84192046#0" to="147396079#1"/>
    <trip id="veh128" type="veh_passenger" depart="177.44" departLane="best" from="147396079#1" to="-4998697#0"/>
    <trip id="veh129" type="veh_passenger" depart="178.83" departLane="best" departSpeed="max" from="539005630#0" to="8080546"/>
    <trip id="veh131" type="veh_passenger" depart="181.60" departLane="best" from="-789285090#1" to="8900171#1"/>
    <trip id="veh132" type="veh_passenger" depart="182.99" departLane="best" from="679596251#0" to="8080546"/>
    <trip id="veh133" type="veh_passenger" depart="184.37" departLane="best" from="-185253723" to="5010645#1"/>
    <trip id="veh134" type="veh_passenger" depart="185.76" departLane="best" from="57779369#1" to="8072723#0"/>
    <trip id="veh135" type="veh_passenger" depart="187.14" departLane="best" from="679596251#0" to="225488657"/>
    <trip id="veh136" type="veh_passenger" depart="188.53" departLane="best" from="576889191#0" to="-5010631#3"/>
    <trip id="veh137" type="veh_passenger" depart="189.92" departLane="best" departSpeed="max" from="122929941#0" to="679596251#0"/>
    <trip id="veh138" type="veh_passenger" depart="191.30" departLane="best" from="31247388#2" to="25949685"/>
    <trip id="veh139" type="veh_passenger" depart="192.69" departLane="best" from="577206483#1" to="170511032#1"/>
    <trip id="veh140" type="veh_passenger" depart="194.08" departLane="best" from="-179638536#3" to="113296995#1"/>
    <trip id="veh141" type="veh_passenger" depart="195.46" departLane="best" from="242052007" to="8072723#1"/>
    <trip id="veh142" type="veh_passenger" depart="196.85" departLane="best" from="93629726#1" to="238045925"/>
    <trip id="veh143" type="veh_passenger" depart="198.23" departLane="best" from="4952816#2" to="28235067"/>
    <trip id="veh144" type="veh_passenger" depart="199.62" departLane="best" from="9567011#3" to="354021079#2"/>
    <trip id="veh145" type="veh_passenger" depart="201.01" departLane="best" from="95194308#2" to="1014615245#1"/>
    <trip id="veh146" type="veh_passenger" depart="202.39" departLane="best" from="926248666" to="225488657"/>
    <trip id="veh147" type="veh_passenger" depart="203.78" departLane="best" departSpeed="max" from="-4952862" to="31131383"/>
    <trip id="veh148" type="veh_passenger" depart="205.17" departLane="best" from="5010636#0" to="25949689"/>
    <trip id="veh149" type="veh_passenger" depart="206.55" departLane="best" from="442794485#0" to="349539113#1"/>
    <trip id="veh150" type="veh_passenger" depart="207.94" departLane="best" from="271227046#0" to="393175884#1"/>
    <trip id="veh151" type="veh_passenger" depart="209.32" departLane="best" from="15243475#0" to="4998730"/>
    <trip id="veh152" type="veh_passenger" depart="210.71" departLane="best" from="-10130642#2" to="872355863"/>
    <trip id="veh155" type="veh_passenger" depart="214.87" departLane="best" departSpeed="max" from="26386412#0" to="-35284028"/>
    <trip id="veh156" type="veh_passenger" depart="216.26" departLane="best" from="4952889" to="259940620"/>
    <trip id="veh157" type="veh_passenger" depart="217.64" departLane="best" departSpeed="max" from="23486469" to="790323075#0"/>
    <trip id="veh158" type="veh_passenger" depart="219.03" departLane="best" from="5010631#3" to="25943352#2"/>
    <trip id="veh159" type="veh_passenger" depart="220.41" departLane="best" from="23309134" to="29065909#4"/>
    <trip id="veh161" type="veh_passenger" depart="223.19" departLane="best" from="899096768#1" to="4998697#0"/>
    <trip id="veh162" type="veh_passenger" depart="224.57" departLane="best" departSpeed="max" from="84192046#0" to="4583426#3"/>
    <trip id="veh163" type="veh_passenger" depart="225.96" departLane="best" from="22818072#1" to="354021079#2"/>
    <trip id="veh164" type="veh_passenger" depart="227.35" departLane="best" from="-10130642#1" to="25527470#0"/>
    <trip id="veh165" type="veh_passenger" depart="228.73" departLane="best" from="29065909#4" to="39813826#1"/>
    <trip id="veh166" type="veh_passenger" depart="230.12" departLane="best" departSpeed="max" from="4952871" to="31261119"/>
    <trip id="veh167" type="veh_passenger" depart="231.50" departLane="best" from="30321483" to="15243450#3"/>
    <trip id="veh168" type="veh_passenger" depart="232.89" departLane="best" from="31247471#0" to="8107355"/>
    <trip id="veh169" type="veh_passenger" depart="234.28" departLane="best" from="577206483#1" to="10130497#1"/>
    <trip id="veh170" type="veh_passenger" depart="235.66" departLane="best" from="-406390904" to="35302217#2"/>
    <trip id="veh171" type="veh_passenger" depart="237.05" departLane="best" departSpeed="max" from="4583709#0" to="26088764#0"/>
    <trip id="veh173" type="veh_passenger" depart="239.82" departLane="best" from="113145582#0" to="-23148524"/>
    <trip id="veh174" type="veh_passenger" depart="241.21" departLane="best" departSpeed="max" from="146984828#0" to="328764038#1"/>
    <trip id="veh175" type="veh_passenger" depart="242.60" departLane="best" from="29052198#1" to="459434419"/>
    <trip id="veh176" type="veh_passenger" depart="243.98" departLane="best" from="10130642#2" to="4998714#3"/>
    <trip id="veh177" type="veh_passenger" depart="245.37" departLane="best" from="328764040#1" to="172311092#0"/>
    <trip id="veh178" type="veh_passenger" depart="246.75" departLane="best" departSpeed="max" from="4952871" to="-113300211#0"/>
    <trip id="veh179" type="veh_passenger" depart="248.14" departLane="best" from="5010657#2" to="571594915#1"/>
    <trip id="veh180" type="veh_passenger" depart="249.53" departLane="best" departSpeed="max" from="-4952862" to="30323418#0"/>
    <trip id="veh181" type="veh_passenger" depart="250.91" departLane="best" from="-9567011#2" to="9226541#0"/>
    <trip id="veh182" type="veh_passenger" depart="252.30" departLane="best" departSpeed="max" from="35284028" to="-27608418#0"/>
    <trip id="veh183" type="veh_passenger" depart="253.69" departLane="best" from="147396079#1" to="790323075#0"/>
    <trip id="veh184" type="veh_passenger" depart="255.07" departLane="best" from="31247388#0" to="577787559#1"/>
    <trip id="veh186" type="veh_passenger" depart="257.84" departLane="best" departSpeed="max" from="44024903#0" to="899096768#3"/>
    <trip id="veh188" type="veh_passenger" depart="260.62" departLane="best" from="5010631#3" to="349488863#1"/>
    <trip id="veh189" type="veh_passenger" depart="262.00" departLane="best" from="694684031" to="354021079#2"/>
    <trip id="veh190" type="veh_passenger" depart="263.39" departLane="best" departSpeed="max" from="84192046#0" to="5010654#0"/>
    <trip id="veh191" type="veh_passenger" depart="264.78" departLane="best" departSpeed="max" from="146984828#0" to="4952856#0"/>
    <trip id="veh192" type="veh_passenger" depart="266.16" departLane="best" from="4583445#4" to="237915147#0"/>
    <trip id="veh193" type="veh_passenger" depart="267.55" departLane="best" from="-35302217#2" to="242053153#2"/>
    <trip id="veh194" type="veh_passenger" depart="268.93" departLane="best" from="170564299#0" to="25950172#1"/>
    <trip id="veh196" type="veh_passenger" depart="271.71" departLane="best" departSpeed="max" from="124875749" to="4998714#0"/>
    <trip id="veh197" type="veh_passenger" depart="273.09" departLane="best" from="4998718" to="-328764040#1"/>
    <trip id="veh198" type="veh_passenger" depart="274.48" departLane="best" from="28007162#1" to="354021079#2"/>
    <trip id="veh199" type="veh_passenger" depart="275.87" departLane="best" from="29065101" to="13273481#0"/>
    <trip id="veh200" type="veh_passenger" depart="277.25" departLane="best" departSpeed="max" from="29065909#0" to="82235423"/>
    <trip id="veh201" type="veh_passenger" depart="278.64" departLane="best" from="8072718#3" to="538022094#3"/>
    <trip id="veh202" type="veh_passenger" depart="280.02" departLane="best" from="27033538" to="-113300211#0"/>
    <trip id="veh203" type="veh_passenger" depart="281.41" departLane="best" from="25950853#1" to="5010658#3"/>
    <trip id="veh204" type="veh_passenger" depart="282.80" departLane="best" from="8072674" to="899607575"/>
    <trip id="veh205" type="veh_passenger" depart="284.18" departLane="best" departSpeed="max" from="29065909#0" to="5010658#0"/>
    <trip id="veh207" type="veh_passenger" depart="286.96" departLane="best" departSpeed="max" from="122929941#0" to="158722443#0"/>
    <trip id="veh208" type="veh_passenger" depart="288.34" departLane="best" from="30146816#1" to="-25527470#0"/>
    <trip id="veh209" type="veh_passenger" depart="289.73" departLane="best" from="25555587#0" to="4998700"/>
    <trip id="veh210" type="veh_passenger" depart="291.11" departLane="best" from="27803343#0" to="-977070592#2"/>
    <trip id="veh212" type="veh_passenger" depart="293.89" departLane="best" from="27368746#0" to="364911324"/>
    <trip id="veh213" type="veh_passenger" depart="295.27" departLane="best" from="-577206483#0" to="31260904"/>
    <trip id="veh214" type="veh_passenger" depart="296.66" departLane="best" from="5010658#0" to="694681348#4"/>
    <trip id="veh215" type="veh_passenger" depart="298.05" departLane="best" from="15243450#2" to="-442794472"/>
    <trip id="veh216" type="veh_passenger" depart="299.43" departLane="best" departSpeed="max" from="-172986927" to="354021079#2"/>
    <trip id="veh217" type="veh_passenger" depart="300.82" departLane="best" from="4952861#2" to="576889192#1"/>
    <trip id="veh218" type="veh_passenger" depart="302.20" departLane="best" from="4952861#3" to="530323284#0"/>
    <trip id="veh219" type="veh_passenger" depart="303.59" departLane="best" departSpeed="max" from="-172986927" to="-9567011#0"/>
    <trip id="veh221" type="veh_passenger" depart="306.36" departLane="best" from="355985162#3" to="158722443#0"/>
    <trip id="veh222" type="veh_passenger" depart="307.75" departLane="best" from="4998714#2" to="538022094#3"/>
    <trip id="veh223" type="veh_passenger" depart="309.14" departLane="best" from="-84192046#3" to="4469956#2"/>
    <trip id="veh224" type="veh_passenger" depart="310.52" departLane="best" from="5010654#0" to="-5010636#1"/>
    <trip id="veh225" type="veh_passenger" depart="311.91" departLane="best" from="680874631#1" to="923430541"/>
    <trip id="veh226" type="veh_passenger" depart="313.29" departLane="best" departSpeed="max" from="-4952862" to="-23148524"/>
    <trip id="veh227" type="veh_passenger" depart="314.68" departLane="best" departSpeed="max" from="23486469" to="4998697#0"/>
    <trip id="veh228" type="veh_passenger" depart="316.07" departLane="best" from="4998733" to="-35302221#2"/>
    <trip id="veh231" type="veh_passenger" depart="320.23" departLane="best" departSpeed="max" from="-4998704" to="9567011#5"/>
    <trip id="veh232" type="veh_passenger" depart="321.61" departLane="best" departSpeed="max" from="539005630#0" to="26419634#0"/>
    <trip id="veh233" type="veh_passenger" depart="323.00" departLane="best" from="29065909#2" to="27192095#2"/>
    <trip id="veh234" type="veh_passenger" depart="324.38" departLane="best" from="342760499" to="26153832#1"/>
    <trip id="veh235" type="veh_passenger" depart="325.77" departLane="best" from="459434419" to="694681348#2"/>
    <trip id="veh236" type="veh_passenger" depart="327.16" departLane="best" from="4998719" to="31247388#0"/>
    <trip id="veh237" type="veh_passenger" depart="328.54" departLane="best" departSpeed="max" from="5010637#0" to="926248665#0"/>
    <trip id="veh240" type="veh_passenger" depart="332.70" departLane="best" from="30146816#1" to="5010636#1"/>
    <trip id="veh241" type="veh_passenger" depart="334.09" departLane="best" from="170511032#2" to="790323075#1"/>
    <trip id="veh243" type="veh_passenger" depart="336.86" departLane="best" from="8089369" to="172311092#0"/>
    <trip id="veh244" type="veh_passenger" depart="338.25" departLane="best" from="31247400#1" to="4583374#1"/>
    <trip id="veh245" type="veh_passenger" depart="339.63" departLane="best" from="27033537#0" to="-25527470#0"/>
    <trip id="veh246" type="veh_passenger" depart="341.02" departLane="best" from="8044227#0" to="113145582#1"/>
    <trip id="veh247" type="veh_passenger" depart="342.41" departLane="best" from="113296995#1" to="577206483#1"/>
    <trip id="veh248" type="veh_passenger" depart="343.79" departLane="best" from="4998714#3" to="237926031"/>
    <trip id="veh250" type="veh_passenger" depart="346.56" departLane="best" from="4998703#2" to="4952861#3"/>
    <trip id="veh251" type="veh_passenger" depart="347.95" departLane="best" from="328764039#0" to="576889192#1"/>
    <trip id="veh252" type="veh_passenger" depart="349.34" departLane="best" from="-4583400#1" to="165778776"/>
    <trip id="veh253" type="veh_passenger" depart="350.72" departLane="best" from="4998709" to="25949687"/>
    <trip id="veh254" type="veh_passenger" depart="352.11" departLane="best" from="406390894#1" to="328764038#0"/>
    <trip id="veh255" type="veh_passenger" depart="353.50" departLane="best" from="5010645#3" to="259940620"/>
    <trip id="veh256" type="veh_passenger" depart="354.88" departLane="best" from="15243450#1" to="-655674848#1"/>
    <trip id="veh257" type="veh_passenger" depart="356.27" departLane="best" from="10130639#2" to="-577206483#2"/>
    <trip id="veh258" type="veh_passenger" depart="357.65" departLane="best" from="-977070592#2" to="15243475#0"/>
    <trip id="veh259" type="veh_passenger" depart="359.04" departLane="best" departSpeed="max" from="9567011#0" to="35302221#2"/>
    <trip id="veh260" type="veh_passenger" depart="360.43" departLane="best" from="179638536#0" to="-4997666#0"/>
    <trip id="veh261" type="veh_passenger" depart="361.81" departLane="best" from="10130642#2" to="170511032#1"/>
    <trip id="veh262" type="veh_passenger" depart="363.20" departLane="best" from="-9567011#4" to="-172206108"/>
    <trip id="veh263" type="veh_passenger" depart="364.59" departLane="best" from="35302222#2" to="234978092#3"/>
    <trip id="veh264" type="veh_passenger" depart="365.97" departLane="best" departSpeed="max" from="9567011#0" to="355985162#1"/>
    <trip id="veh265" type="veh_passenger" depart="367.36" departLane="best" from="4998713#1" to="-8079193"/>
    <trip id="veh266" type="veh_passenger" depart="368.74" departLane="best" from="8080531#0" to="339590033#2"/>
    <trip id="veh267" type="veh_passenger" depart="370.13" departLane="best" from="8080532#0" to="393175884#1"/>
    <trip id="veh269" type="veh_passenger" depart="372.90" departLane="best" from="-977070592#2" to="-27608418#1"/>
    <trip id="veh270" type="veh_passenger" depart="374.29" departLane="best" from="694681348#1" to="28235067"/>
    <trip id="veh271" type="veh_passenger" depart="375.68" departLane="best" from="-328764040#1" to="459434419"/>
    <trip id="veh272" type="veh_passenger" depart="377.06" departLane="best" from="-26569832#1" to="-9536246#0"/>
    <trip id="veh273" type="veh_passenger" depart="378.45" departLane="best" from="977070593#2" to="-577206483#2"/>
    <trip id="veh274" type="veh_passenger" depart="379.83" departLane="best" from="538022091#0" to="4469956#2"/>
    <trip id="veh276" type="veh_passenger" depart="382.61" departLane="best" from="35302218" to="31247424#0"/>
    <trip id="veh277" type="veh_passenger" depart="383.99" departLane="best" from="30321483" to="8072718#0"/>
    <trip id="veh278" type="veh_passenger" depart="385.38" departLane="best" from="977070593#0" to="25949687"/>
    <trip id="veh279" type="veh_passenger" depart="386.77" departLane="best" from="5010645#0" to="899096768#2"/>
    <trip id="veh280" type="veh_passenger" depart="388.15" departLane="best" from="113145685" to="147396079#1"/>
    <trip id="veh281" type="veh_passenger" depart="389.54" departLane="best" departSpeed="max" from="4952871" to="-9567011#2"/>
    <trip id="veh282" type="veh_passenger" depart="390.92" departLane="best" from="-899096765" to="-35302221#1"/>
    <trip id="veh283" type="veh_passenger" depart="392.31" departLane="best" from="-10130642#2" to="31247424#0"/>