<?xml version="1.0" encoding="UTF-8"?>

<!-- generated on 2022-03-05 00:09:47 by Eclipse SUMO duarouter Version 1.12.0
<configuration xmlns:xsi="http://www.w3.org/2001/XMLSchema-instance" xsi:noNamespaceSchemaLocation="http://sumo.dlr.de/xsd/duarouterConfiguration.xsd">

    <input>
        <net-file value="C:\Users\Marku\Sumo\2022-03-05-00-09-37\osm.net.xml"/>
        <route-files value="C:\Users\Marku\Sumo\2022-03-05-00-09-37\osm.motorcycle.trips.xml"/>
    </input>

    <output>
        <output-file value="C:\Users\Marku\Sumo\2022-03-05-00-09-37\osm.motorcycle.trips.xml.tmp"/>
        <write-trips value="true"/>
    </output>

    <time>
        <begin value="0"/>
        <end value="3600"/>
    </time>

    <report>
        <no-warnings value="true"/>
        <ignore-errors value="true"/>
        <no-step-log value="true"/>
    </report>

</configuration>
-->

<routes xmlns:xsi="http://www.w3.org/2001/XMLSchema-instance" xsi:noNamespaceSchemaLocation="http://sumo.dlr.de/xsd/routes_file.xsd">
    <vType id="moto_motorcycle" vClass="motorcycle"/>
    <trip id="moto0" type="moto_motorcycle" depart="0.00" departLane="best" from="4583445#5" to="-185253723"/>
    <trip id="moto1" type="moto_motorcycle" depart="4.62" departLane="best" from="170511031#2" to="113300211#1"/>
    <trip id="moto2" type="moto_motorcycle" depart="9.24" departLane="best" from="5010630" to="4997677#0"/>
    <trip id="moto3" type="moto_motorcycle" depart="13.86" departLane="best" from="8089390#1" to="-35302221#1"/>
    <trip id="moto4" type="moto_motorcycle" depart="18.48" departLane="best" from="27368746#1" to="-190494839#2"/>
    <trip id="moto5" type="moto_motorcycle" depart="23.10" departLane="best" from="113145685" to="328764038#0"/>
    <trip id="moto6" type="moto_motorcycle" depart="27.73" departLane="best" from="-179638536#2" to="1014615245#1"/>
    <trip id="moto7" type="moto_motorcycle" depart="32.35" departLane="best" from="459434419" to="35302221#1"/>
    <trip id="moto8" type="moto_motorcycle" depart="36.97" departLane="best" from="113296985" to="40856788"/>
    <trip id="moto9" type="moto_motorcycle" depart="41.59" departLane="best" from="679596251#1" to="-113300211#0"/>
    <trip id="moto10" type="moto_motorcycle" depart="46.21" departLane="best" from="679596248" to="4998697#2"/>
    <trip id="moto11" type="moto_motorcycle" depart="50.83" departLane="best" from="234978092#3" to="-8089369"/>
    <trip id="moto12" type="moto_motorcycle" depart="55.45" departLane="best" from="9226410" to="242053153#1"/>
    <trip id="moto13" type="moto_motorcycle" depart="60.07" departLane="best" from="-406390904" to="-442794473#0"/>
    <trip id="moto14" type="moto_motorcycle" depart="64.69" departLane="best" from="8072689" to="44028858"/>
    <trip id="moto15" type="moto_motorcycle" depart="69.31" departLane="best" from="679596249" to="4998730"/>
    <trip id="moto16" type="moto_motorcycle" depart="73.93" departLane="best" from="35302217#2" to="9331754#1"/>
    <trip id="moto17" type="moto_motorcycle" depart="78.55" departLane="best" from="26153832#0" to="35302222#3"/>
    <trip id="moto18" type="moto_motorcycle" depart="83.18" departLane="best" from="73227422" to="4469956#2"/>
    <trip id="moto19" type="moto_motorcycle" depart="87.80" departLane="best" from="8079193" to="393175884#1"/>
    <trip id="moto20" type="moto_motorcycle" depart="92.42" departLane="best" from="4998704" to="-26420698#0"/>
    <trip id="moto21" type="moto_motorcycle" depart="97.04" departLane="best" from="113300209#2" to="179638536#2"/>
    <trip id="moto23" type="moto_motorcycle" depart="106.28" departLane="best" from="-442794477" to="172206108"/>
    <trip id="moto24" type="moto_motorcycle" depart="110.90" departLane="best" from="4583445#2" to="25950853#0"/>
    <trip id="moto25" type="moto_motorcycle" depart="115.52" departLane="best" from="25950853#0" to="113145641#1"/>
    <trip id="moto26" type="moto_motorcycle" depart="120.14" departLane="best" from="158722443#0" to="8900171#5"/>
    <trip id="moto27" type="moto_motorcycle" depart="124.76" departLane="best" from="4583709#2" to="442794472"/>
    <trip id="moto28" type="moto_motorcycle" depart="129.38" departLane="best" departSpeed="max" from="-778380373" to="26153832#2"/>
    <trip id="moto30" type="moto_motorcycle" depart="138.63" departLane="best" from="8044227#0" to="533387419"/>
    <trip id="moto31" type="moto_motorcycle" depart="143.25" departLane="best" from="113300211#0" to="-23148524"/>
    <trip id="moto32" type="moto_motorcycle" depart="147.87" departLane="best" from="208876058#1" to="170553610#1"/>
    <trip id="moto33" type="moto_motorcycle" depart="152.49" departLane="best" from="113145582#2" to="899096765"/>
    <trip id="moto34" type="moto_motorcycle" depart="157.11" departLane="best" from="8080531#3" to="208876059#7"/>
    <trip id="moto35" type="moto_motorcycle" depart="161.73" departLane="best" from="4952816#1" to="26569832#1"/>
    <trip id="moto36" type="moto_motorcycle" depart="166.35" departLane="best" from="84789886#1" to="30323418#1"/>
    <trip id="moto37" type="moto_motorcycle" depart="170.97" departLane="best" from="15243475#1" to="15243450#3"/>
    <trip id="moto39" type="moto_motorcycle" depart="180.21" departLane="best" from="406390906#0" to="8089390#0"/>
    <trip id="moto40" type="moto_motorcycle" depart="184.83" departLane="best" from="26569832#0" to="113300209#1"/>
    <trip id="moto41" type="moto_motorcycle" depart="189.46" departLane="best" from="977070593#4" to="328764040#0"/>
    <trip id="moto42" type="moto_motorcycle" depart="194.08" departLane="best" from="-364911324" to="-26420698#0"/>
    <trip id="moto44" type="moto_motorcycle" depart="203.32" departLane="best" from="577206483#1" to="277877545"/>
    <trip id="moto46" type="moto_motorcycle" depart="212.56" departLane="best" from="977070593#3" to="349539113#1"/>
    <trip id="moto47" type="moto_motorcycle" depart="217.18" departLane="best" from="9331754#1" to="8072723#1"/>
    <trip id="moto48" type="moto_motorcycle" depart="221.80" departLane="best" from="-147396079#1" to="4998714#8"/>
    <trip id="moto49" type="moto_motorcycle" depart="226.42" departLane="best" from="4997677#2" to="35302218"/>
    <trip id="moto51" type="moto_motorcycle" depart="235.66" departLane="best" from="-4583445#2" to="28235067"/>
    <trip id="moto52" type="moto_motorcycle" depart="240.28" departLane="best" from="30146816#1" to="899607574#0"/>
    <trip id="moto53" type="moto_motorcycle" depart="244.91" departLane="best" from="8080531#3" to="170511032#0"/>
    <trip id="moto54" type="moto_motorcycle" depart="249.53" departLane="best" from="31725051#5" to="-9567011#3"/>
    <trip id="moto55" type="moto_motorcycle" depart="254.15" departLane="best" from="84789886#0" to="8080526#0"/>
    <trip id="moto57" type="moto_motorcycle" depart="263.39" departLane="best" from="442794473#0" to="-789285090#1"/>
    <trip id="moto58" type="moto_motorcycle" depart="268.01" departLane="best" from="5010654#0" to="35302219#2"/>
    <trip id="moto59" type="moto_motorcycle" depart="272.63" departLane="best" from="538022094#0" to="349539113#2"/>
    <trip id="moto60" type="moto_motorcycle" depart="277.25" departLane="best" from="-10130642#1" to="23309134"/>
    <trip id="moto61" type="moto_motorcycle" depart="281.87" departLane="best" departSpeed="max" from="-172206111" to="8900171#0"/>
    <trip id="moto62" type="moto_motorcycle" depart="286.49" departLane="best" from="8080532#0" to="694684031"/>
    <trip id="moto63" type="moto_motorcycle" depart="291.11" departLane="best" from="190494839#1" to="-27608418#0"/>
    <trip id="moto64" type="moto_motorcycle" depart="295.73" departLane="best" from="8080531#4" to="899096768#0"/>
    <trip id="moto65" type="moto_motorcycle" depart="300.36" departLane="best" from="-35302218" to="31247471#1"/>
    <trip id="moto66" type="moto_motorcycle" depart="304.98" departLane="best" from="-29065101" to="5010645#2"/>
    <trip id="moto67" type="moto_motorcycle" depart="309.60" departLane="best" from="5010657#1" to="-4998697#0"/>
    <trip id="moto68" type="moto_motorcycle" depart="314.22" departLane="best" from="31131383" to="35302222#1"/>
    <trip id="moto69" type="moto_motorcycle" depart="318.84" departLane="best" from="15243475#1" to="8080526#1"/>
    <trip id="moto70" type="moto_motorcycle" depart="323.46" departLane="best" from="27608418#0" to="113145685"/>
    <trip id="moto71" type="moto_motorcycle" depart="328.08" departLane="best" from="35302219#1" to="4998730"/>
    <trip id="moto72" type="moto_motorcycle" depart="332.70" departLane="best" from="10130642#1" to="208876059#5"/>
    <trip id="moto73" type="moto_motorcycle" depart="337.32" departLane="best" from="977070593#2" to="459434419"/>
    <trip id="moto74" type="moto_motorcycle" depart="341.94" departLane="best" from="29052198#0" to="339590033#2"/>
    <trip id="moto75" type="moto_motorcycle" depart="346.56" departLane="best" from="-4952861#1" to="113300211#2"/>
    <trip id="moto76" type="moto_motorcycle" depart="351.19" departLane="best" departSpeed="max" from="23486469" to="40856788"/>
    <trip id="moto77" type="moto_motorcycle" depart="355.81" departLane="best" from="113300211#1" to="113300209#2"/>
    <trip id="moto78" type="moto_motorcycle" depart="360.43" departLane="best" from="-30979875#0" to="4583426#3"/>
    <trip id="moto79" type="moto_motorcycle" depart="365.05" departLane="best" from="113300211#0" to="82235422"/>
    <trip id="moto80" type="moto_motorcycle" depart="369.67" departLane="best" from="8072955#1" to="-30979875#3"/>
    <trip id="moto81" type="moto_motorcycle" depart="374.29" departLane="best" departSpeed="max" from="124875749" to="4952863"/>
    <trip id="moto82" type="moto_motorcycle" depart="378.91" departLane="best" from="113145641#0" to="-5010631#1"/>
    <trip id="moto84" type="moto_motorcycle" depart="388.15" departLane="best" from="30979875#3" to="571594915#1"/>
    <trip id="moto85" type="moto_motorcycle" depart="392.77" departLane="best" from="679596251#0" to="10130497#1"/>
    <trip id="moto86" type="moto_motorcycle" depart="397.39" departLane="best" from="-442794472" to="28007162#1"/>
    <trip id="moto87" type="moto_motorcycle" depart="402.01" departLane="best" from="27608418#1" to="30979875#2"/>
    <trip id="moto88" type="moto_motorcycle" depart="406.64" departLane="best" from="4998732#1" to="4952889"/>
    <trip id="moto89" type="moto_motorcycle" depart="411.26" departLane="best" from="9567011#3" to="-442794473#1"/>
    <trip id="moto91" type="moto_motorcycle" depart="420.50" departLane="best" from="8079193" to="15243475#0"/>
    <trip id="moto92" type="moto_motorcycle" depart="425.12" departLane="best" from="-977070592#0" to="30146816#1"/>
    <trip id="moto93" type="moto_motorcycle" depart="429.74" departLane="best" from="27368746#1" to="172206108"/>
    <trip id="moto94" type="moto_motorcycle" depart="434.36" departLane="best" from="13275666#1" to="868062641"/>
    <trip id="moto95" type="moto_motorcycle" depart="438.98" departLane="best" from="29065101" to="8072723#1"/>
    <trip id="moto96" type="moto_motorcycle" depart="443.60" departLane="best" from="35302222#1" to="-26569832#1"/>
    <trip id="moto97" type="moto_motorcycle" depart="448.22" departLane="best" from="991807353" to="778380373"/>
    <trip id="moto98" type="moto_motorcycle" depart="452.84" departLane="best" from="8072718#0" to="-877619596#0"/>
    <trip id="moto101" type="moto_motorcycle" depart="466.71" departLane="best" from="26153832#0" to="9567011#4"/>
    <trip id="moto102" type="moto_motorcycle" depart="471.33" departLane="best" from="15243475#1" to="571594915#0"/>
    <trip id="moto103" type="moto_motorcycle" depart="475.95" departLane="best" from="30146816#2" to="277887337#1"/>
    <trip id="moto104" type="moto_motorcycle" depart="480.57" departLane="best" from="9226410" to="977070593#2"/>
    <trip id="moto105" type="moto_motorcycle" depart="485.19" departLane="best" from="35306132" to="4998714#5"/>
    <trip id="moto106" type="moto_motorcycle" depart="489.81" departLane="best" from="-655674848#1" to="190494839#1"/>
    <trip id="moto107" type="moto_motorcycle" depart="494.43" departLane="best" from="926248665#1" to="393175884#1"/>
    <trip id="moto108" type="moto_motorcycle" depart="499.05" departLane="best" from="35302220#0" to="5010633#2"/>
    <trip id="moto109" type="moto_motorcycle" depart="503.67" departLane="best" from="-271227047#0" to="406390894#1"/>
    <trip id="moto110" type="moto_motorcycle" depart="508.29" departLane="best" from="31725051#8" to="8072689"/>
    <trip id="moto111" type="moto_motorcycle" depart="512.92" departLane="best" from="-328764040#1" to="-977070592#2"/>
    <trip id="moto112" type="moto_motorcycle" depart="517.54" departLane="best" from="44024901#2" to="4997666#1"/>
    <trip id="moto113" type="moto_motorcycle" depart="522.16" departLane="best" from="8089390#0" to="15243450#3"/>
    <trip id="moto114" type="moto_motorcycle" depart="526.78" departLane="best" from="44024901#1" to="455386120"/>
    <trip id="moto115" type="moto_motorcycle" depart="531.40" departLane="best" from="27192095#2" to="406390894#1"/>
    <trip id="moto117" type="moto_motorcycle" depart="540.64" departLane="best" from="10130730" to="4998714#3"/>
    <trip id="moto118" type="moto_motorcycle" depart="545.26" departLane="best" departSpeed="max" from="124875749" to="26569994#0"/>
    <trip id="moto119" type="moto_motorcycle" depart="549.88" departLane="best" from="4952878#1" to="204792829#0"/>
    <trip id="moto120" type="moto_motorcycle" depart="554.50" departLane="best" from="208876059#0" to="5010636#0"/>
    <trip id="moto121" type="moto_motorcycle" depart="559.12" departLane="best" from="-30979875#1" to="30323418#0"/>
    <trip id="moto122" type="moto_motorcycle" depart="563.74" departLane="best" from="977070593#4" to="977070593#3"/>
    <trip id="moto123" type="moto_motorcycle" depart="568.37" departLane="best" from="-30979875#1" to="113296985"/>
    <trip id="moto124" type="moto_motorcycle" depart="572.99" departLane="best" from="15243475#1" to="8900171#3"/>
    <trip id="moto125" type="moto_motorcycle" depart="577.61" departLane="best" from="8080532#1" to="8080531#2"/>
    <trip id="moto126" type="moto_motorcycle" depart="582.23" departLane="best" from="25950273#1" to="-84192046#0"/>
    <trip id="moto127" type="moto_motorcycle" depart="586.85" departLane="best" from="778380374#0" to="4998703#2"/>
    <trip id="moto128" type="moto_motorcycle" depart="591.47" departLane="best" from="442794477" to="977070592#0"/>
    <trip id="moto129" type="moto_motorcycle" depart="596.09" departLane="best" from="4952816#0" to="-113300211#1"/>
    <trip id="moto130" type="moto_motorcycle" depart="600.71" departLane="best" from="694681348#0" to="204792829#0"/>
    <trip id="moto131" type="moto_motorcycle" depart="605.33" departLane="best" from="4952861#2" to="8901329"/>
    <trip id="moto132" type="moto_motorcycle" depart="609.95" departLane="best" from="-4998697#1" to="-4583564#1"/>
    <trip id="moto133" type="moto_motorcycle" depart="614.57" departLane="best" from="-4583400#2" to="35302222#4"/>
    <trip id="moto134" type="moto_motorcycle" depart="619.19" departLane="best" from="170511031#0" to="44028859#0"/>
    <trip id="moto135" type="moto_motorcycle" depart="623.82" departLane="best" from="4998714#5" to="113145582#2"/>
    <trip id="moto136" type="moto_motorcycle" depart="628.44" departLane="best" from="4583445#1" to="170511032#0"/>
    <trip id="moto137" type="moto_motorcycle" depart="633.06" departLane="best" from="31247424#1" to="82235422"/>
    <trip id="moto138" type="moto_motorcycle" depart="637.68" departLane="best" from="27608418#1" to="172206106"/>
    <trip id="moto139" type="moto_motorcycle" depart="642.30" departLane="best" from="-113296995#0" to="5010658#1"/>
    <trip id="moto140" type="moto_motorcycle" depart="646.92" departLane="best" from="4583445#3" to="170511031#3"/>
    <trip id="moto141" type="moto_motorcycle" depart="651.54" departLane="best" from="5010633#0" to="35302222#3"/>
    <trip id="moto142" type="moto_motorcycle" depart="656.16" departLane="best" from="277877545" to="-113300211#2"/>
    <trip id="moto143" type="moto_motorcycle" depart="660.78" departLane="best" from="-30979875#3" to="8080532#0"/>
    <trip id="moto144" type="moto_motorcycle" depart="665.40" departLane="best" departSpeed="max" from="84192046#0" to="35302221#1"/>
    <trip id="moto145" type="moto_motorcycle" depart="670.02" departLane="best" from="778380374#1" to="39813826#1"/>
    <trip id="moto146" type="moto_motorcycle" depart="674.65" departLane="best" from="-5010636#0" to="-4998697#0"/>
    <trip id="moto147" type="moto_motorcycle" depart="679.27" departLane="best" from="190494839#1" to="8089390#1"/>
    <trip id="moto148" type="moto_motorcycle" depart="683.89" departLane="best" from="57779366" to="8072723#1"/>
    <trip id="moto149" type="moto_motorcycle" depart="688.51" departLane="best" from="82235423" to="113145683"/>
    <trip id="moto151" type="moto_motorcycle" depart="697.75" departLane="best" from="538022094#2" to="8080532#0"/>
    <trip id="moto152" type="moto_motorcycle" depart="702.37" departLane="best" from="27033537#0" to="4583374#1"/>
    <trip id="moto153" type="moto_motorcycle" depart="706.99" departLane="best" from="-655674848#1" to="8900171#0"/>
    <trip id="moto154" type="moto_motorcycle" depart="711.61" departLane="best" from="8080525" to="93629726#2"/>
    <trip id="moto155" type="moto_motorcycle" depart="716.23" departLane="best" from="679596251#2" to="8080531#3"/>
    <trip id="moto156" type="moto_motorcycle" depart="720.85" departLane="best" from="-179638536#1" to="4998732#4"/>
    <trip id="moto157" type="moto_motorcycle" depart="725.47" departLane="best" departSpeed="max" from="23148524" to="8900171#1"/>
    <trip id="moto158" type="moto_motorcycle" depart="730.10" departLane="best" from="655674851" to="8072955#1"/>
    <trip id="moto159" type="moto_motorcycle" depart="734.72" departLane="best" from="679596251#2" to="170511032#2"/>
    <trip id="moto160" type="moto_motorcycle" depart="739.34" departLane="best" from="571594915#1" to="-4583445#1"/>
    <trip id="moto161" type="moto_motorcycle" depart="743.96" departLane="best" from="8080531#0" to="8072723#0"/>
    <trip id="moto162" type="moto_motorcycle" depart="748.58" departLane="best" from="113296995#1" to="679596251#3"/>
    <trip id="moto163" type="moto_motorcycle" depart="753.20" departLane="best" from="30322208#0" to="208876059#0"/>
    <trip id="moto164" type="moto_motorcycle" depart="757.82" departLane="best" from="577787559#1" to="124875756#0"/>
    <trip id="moto165" type="moto_motorcycle" depart="762.44" departLane="best" from="-179638536#0" to="10130639#2"/>
    <trip id="moto166" type="moto_motorcycle" depart="767.06" departLane="best" from="22818072#0" to="8072955#2"/>
    <trip id="moto167" type="moto_motorcycle" depart="771.68" departLane="best" from="926248665#0" to="172206111"/>
    <trip id="moto168" type="moto_motorcycle" depart="776.30" departLane="best" from="4583564#1" to="26569994#2"/>
    <trip id="moto169" type="moto_motorcycle" depart="780.92" departLane="best" departSpeed="max" from="9567011#0" to="35302218"/>
    <trip id="moto170" type="moto_motorcycle" depart="785.55" departLane="best" from="898564143" to="-4583564#1"/>
    <trip id="moto171" type="moto_motorcycle" depart="790.17" departLane="best" from="9331754#1" to="-9567011#2"/>
    <trip id="moto172" type="moto_motorcycle" depart="794.79" departLane="best" from="9226587#0" to="170511032#1"/>
    <trip id="moto173" type="moto_motorcycle" depart="799.41" departLane="best" from="-4583400#4" to="28235067"/>
    <trip id="moto174" type="moto_motorcycle" depart="804.03" departLane="best" from="4998732#1" to="208876059#6"/>
    <trip id="moto175" type="moto_motorcycle" depart="808.65" departLane="best" from="441635691" to="328764040#1"/>
    <trip id="moto176" type="moto_motorcycle" depart="813.27" departLane="best" from="26257143#1" to="37851390#0"/>
    <trip id="moto177" type="moto_motorcycle" depart="817.89" departLane="best" from="146984828#1" to="4998710#1"/>
    <trip id="moto178" type="moto_motorcycle" depart="822.51" departLane="best" from="-10130642#2" to="872355863"/>
    <trip id="moto179" type="moto_motorcycle" depart="827.13" departLane="best" from="35302219#1" to="4998714#7"/>
    <trip id="moto180" type="moto_motorcycle" depart="831.75" departLane="best" from="25949685" to="-30979875#2"/>
    <trip id="moto181" type="moto_motorcycle" depart="836.38" departLane="best" from="208876058#0" to="8044227#0"/>
    <trip id="moto182" type="moto_motorcycle" depart="841.00" departLane="best" from="4998714#8" to="204792829#1"/>
    <trip id="moto183" type="moto_motorcycle" depart="845.62" departLane="best" from="190494839#2" to="271227047#0"/>
    <trip id="moto185" type="moto_motorcycle" depart="854.86" departLane="best" from="898564143" to="4997677#1"/>
    <trip id="moto187" type="moto_motorcycle" depart="864.10" departLane="best" from="179638536#2" to="35302222#0"/>
    <trip id="moto188" type="moto_motorcycle" depart="868.72" departLane="best" from="-10130642#1" to="179638536#0"/>
    <trip id="moto189" type="moto_motorcycle" depart="873.34" departLane="best" from="27803343#0" to="393175884#1"/>
    <trip id="moto190" type="moto_motorcycle" depart="877.96" departLane="best" from="4952816#1" to="30979875#1"/>
    <trip id="moto191" type="moto_motorcycle" depart="882.58" departLane="best" from="29065101" to="113296985"/>
    <trip id="moto192" type="moto_motorcycle" depart="887.20" departLane="best" from="30979875#4" to="8103726#1"/>
    <trip id="moto193" type="moto_motorcycle" depart="891.83" departLane="best" from="577787559#1" to="-877619596#1"/>
    <trip id="moto194" type="moto_motorcycle" depart="896.45" departLane="best" from="-35302217#2" to="339590029#1"/>
    <trip id="moto195" type="moto_motorcycle" depart="901.07" departLane="best" from="4583428" to="242052007"/>
    <trip id="moto196" type="moto_motorcycle" depart="905.69" departLane="best" from="4952878#1" to="113300211#2"/>
    <trip id="moto197" type="moto_motorcycle" depart="910.31" departLane="best" from="10130639#0" to="-185253723"/>
    <trip id="moto198" type="moto_motorcycle" depart="914.93" departLane="best" from="126046671#1" to="31247388#2"/>
    <trip id="moto199" type="moto_motorcycle" depart="919.55" departLane="best" from="8072718#0" to="-30979875#4"/>
    <trip id="moto200" type="moto_motorcycle" depart="924.17" departLane="best" from="271227047#1" to="4583426#0"/>
    <trip id="moto201" type="moto_motorcycle" depart="928.79" departLane="best" from="-991807353" to="4998697#1"/>
    <trip id="moto202" type="moto_motorcycle" depart="933.41" departLane="best" from="31725051#0" to="15243450#1"/>
    <trip id="moto203" type="moto_motorcycle" depart="938.03" departLane="best" from="4952816#2" to="-113296995#1"/>
    <trip id="moto204" type="moto_motorcycle" depart="942.65" departLane="best" departSpeed="max" from="5010637#0" to="5010658#1"/>
    <trip id="moto205" type="moto_motorcycle" depart="947.28" departLane="best" from="-84789882" to="912905969"/>
    <trip id="moto206" type="moto_motorcycle" depart="951.90" departLane="best" from="339590033#1" to="-26569832#1"/>
    <trip id="moto207" type="moto_motorcycle" depart="956.52" departLane="best" from="13275666#0" to="8044227#0"/>
    <trip id="moto208" type="moto_motorcycle" depart="961.14" departLane="best" from="30156333" to="57779370"/>
    <trip id="moto209" type="moto_motorcycle" depart="965.76" departLane="best" departSpeed="max" from="4952871" to="977070592#0"/>
    <trip id="moto210" type="moto_motorcycle" depart="970.38" departLane="best" from="44024901#2" to="899096768#3"/>
    <trip id="moto211" type="moto_motorcycle" depart="975.00" departLane="best" from="8089390#1" to="442794473#1"/>
    <trip id="moto212" type="moto_motorcycle" depart="979.62" departLane="best" from="4998714#7" to="328764038#0"/>
    <trip id="moto213" type="moto_motorcycle" depart="984.24" departLane="best" from="73236998#0" to="35302222#0"/>
    <trip id="moto214" type="moto_motorcycle" depart="988.86" departLane="best" from="82235422" to="5010631#3"/>
    <trip id="moto215" type="moto_motorcycle" depart="993.48" departLane="best" from="31131383" to="170511031#1"/>
    <trip id="moto217" type="moto_motorcycle" depart="1002.73" departLane="best" from="5010657#1" to="342760500"/>
    <trip id="moto218" type="moto_motorcycle" depart="1007.35" departLane="best" from="4583426#0" to="171949398"/>
    <trip id="moto219" type="moto_motorcycle" depart="1011.97" departLane="best" from="-30979875#4" to="179638536#0"/>
    <trip id="moto220" type="moto_motorcycle" depart="1016.59" departLane="best" from="170511029#1" to="22818072#0"/>
    <trip id="moto221" type="moto_motorcycle" depart="1021.21" departLane="best" from="35302219#2" to="-5010633#1"/>
    <trip id="moto222" type="moto_motorcycle" depart="1025.83" departLane="best" from="113300211#2" to="4998695#1"/>
    <trip id="moto223" type="moto_motorcycle" depart="1030.45" departLane="best" from="4998709" to="-29065101"/>
    <trip id="moto224" type="moto_motorcycle" depart="1035.07" departLane="best" from="27033538" to="35302220#1"/>
    <trip id="moto225" type="moto_motorcycle" depart="1039.69" departLane="best" from="27192095#0" to="113145601"/>
    <trip id="moto226" type="moto_motorcycle" depart="1044.31" departLane="best" from="27368746#0" to="82235422"/>
    <trip id="moto227" type="moto_motorcycle" depart="1048.93" departLane="best" from="406390906#0" to="4998697#0"/>
    <trip id="moto228" type="moto_motorcycle" depart="1053.56" departLane="best" from="8072723#1" to="5010657#0"/>
    <trip id="moto229" type="moto_motorcycle" depart="1058.18" departLane="best" from="26153832#1" to="-113300211#0"/>
    <trip id="moto230" type="moto_motorcycle" depart="1062.80" departLane="best" from="242053153#2" to="5010636#1"/>
    <trip id="moto231" type="moto_motorcycle" depart="1067.42" departLane="best" from="8072718#3" to="899607574#0"/>
    <trip id="moto232" type="moto_motorcycle" depart="1072.04" departLane="best" from="27192095#2" to="5010633#2"/>
    <trip id="moto233" type="moto_motorcycle" depart="1076.66" departLane="best" from="35302221#1" to="44028858"/>
    <trip id="moto234" type="moto_motorcycle" depart="1081.28" departLane="best" from="113296985" to="113300209#1"/>
    <trip id="moto235" type="moto_motorcycle" depart="1085.90" departLane="best" from="28151969" to="-190494839#2"/>
    <trip id="moto236" type="moto_motorcycle" depart="1090.52" departLane="best" departSpeed="max" from="23486469" to="4997677#2"/>
    <trip id="moto238" type="moto_motorcycle" depart="1099.76" departLane="best" from="307625166" to="-4998697#0"/>
    <trip id="moto239" type="moto_motorcycle" depart="1104.38" departLane="best" from="4583400#1" to="-190494839#0"/>
    <trip id="moto242" type="moto_motorcycle" depart="1118.25" departLane="best" from="-4998697#2" to="307625166"/>
    <trip id="moto243" type="moto_motorcycle" depart="1122.87" departLane="best" from="-26386412#2" to="26153832#2"/>
    <trip id="moto244" type="moto_motorcycle" depart="1127.49" departLane="best" from="113145582#3" to="234978092#3"/>
    <trip id="moto245" type="moto_motorcycle" depart="1132.11" departLane="best" from="5010645#3" to="26153832#2"/>
    <trip id="moto246" type="moto_motorcycle" depart="1136.73" departLane="best" departSpeed="max" from="146984828#0" to="-35302217#2"/>
    <trip id="moto247" type="moto_motorcycle" depart="1141.35" departLane="best" departSpeed="max" from="-172206111" to="35302219#2"/>
    <trip id="moto248" type="moto_motorcycle" depart="1145.97" departLane="best" from="991807353" to="25943352#2"/>
    <trip id="moto249" type="moto_motorcycle" depart="1150.59" departLane="best" from="469205306#0" to="538022094#2"/>
    <trip id="moto250" type="moto_motorcycle" depart="1155.21" departLane="best" from="469205306#1" to="5010636#1"/>
    <trip id="moto251" type="moto_motorcycle" depart="1159.84" departLane="best" from="899607573" to="1014615245#1"/>
    <trip id="moto252" type="moto_motorcycle" depart="1164.46" departLane="best" departSpeed="max" from="-172986927" to="-789285090#1"/>
    <trip id="moto253" type="moto_motorcycle" depart="1169.08" departLane="best" departSpeed="max" from="-4952862" to="4952863"/>
    <trip id="moto254" type="moto_motorcycle" depart="1173.70" departLane="best" from="355985162#0" to="113300209#0"/>
    <trip id="moto255" type="moto_motorcycle" depart="1178.32" departLane="best" departSpeed="max" from="4998703#0" to="5010657#1"/>
    <trip id="moto256" type="moto_motorcycle" depart="1182.94" departLane="best" departSpeed="max" from="-8080546" to="441635691"/>
    <trip id="moto257" type="moto_motorcycle" depart="1187.56" departLane="best" from="5010636#0" to="-4583564#1"/>
    <trip id="moto258" type="moto_motorcycle" depart="1192.18" departLane="best" from="694681348#2" to="9226587#0"/>
    <trip id="moto259" type="moto_motorcycle" depart="1196.80" departLane="best" from="-4583400#4" to="-185253723"/>
    <trip id="moto260" type="moto_motorcycle" depart="1201.42" departLane="best" from="204792829#1" to="4997677#1"/>
    <trip id="moto261" type="moto_motorcycle" depart="1206.04" departLane="best" from="4998714#2" to="-328764040#2"/>
    <trip id="moto263" type="moto_motorcycle" depart="1215.29" departLane="best" from="-442794477" to="5010658#2"/>
    <trip id="moto264" type="moto_motorcycle" depart="1219.91" departLane="best" from="8072718#1" to="44024901#2"/>
    <trip id="moto265" type="moto_motorcycle" depart="1224.53" departLane="best" from="-4952861#1" to="9567011#3"/>
    <trip id="moto266" type="moto_motorcycle" depart="1229.15" departLane="best" departSpeed="max" from="539005630#0" to="25943352#0"/>
    <trip id="moto267" type="moto_motorcycle" depart="1233.77" departLane="best" from="277887337#1" to="259940620"/>