<?xml version="1.0" encoding="UTF-8"?>
<!-- generated on 2022-03-05 00:09:49.061617 by osmWebWizard.py v1_12_0+0000-800cb422fa4
  options: 
-->
<routes xmlns:xsi="http://www.w3.org/2001/XMLSchema-instance" xsi:noNamespaceSchemaLocation="http://sumo.dlr.de/xsd/routes_file.xsd">
    <vType id="ped_pedestrian" vClass="pedestrian"/>
    <person id="ped0" depart="0.00" type="ped_pedestrian">
        <walk from="406956674" to="-128846309#1"/>
    </person>
    <person id="ped1" depart="1.52" type="ped_pedestrian">
        <walk from="128846309#0" to="-9567011#3"/>
    </person>
    <person id="ped2" depart="3.03" type="ped_pedestrian">
        <walk from="463420674#1" to="407677452#2"/>
    </person>
    <person id="ped3" depart="4.55" type="ped_pedestrian">
        <walk from="8084084#1" to="-270461283"/>
    </person>
    <person id="ped4" depart="6.07" type="ped_pedestrian">
        <walk from="26420693#0" to="-140050742#1"/>
    </person>
    <person id="ped5" depart="7.58" type="ped_pedestrian">
        <walk from="-93629726#1" to="30156334#1"/>
    </person>
    <person id="ped6" depart="9.10" type="ped_pedestrian">
        <walk from="-128846309#4" to="-84789883#2"/>
    </person>
    <person id="ped7" depart="10.62" type="ped_pedestrian">
        <walk from="407661813" to="33963524#1"/>
    </person>
    <person id="ped8" depart="12.13" type="ped_pedestrian">
        <walk from="-948342150" to="406924465"/>
    </person>
    <person id="ped9" depart="13.65" type="ped_pedestrian">
        <walk from="5010634#0" to="-1024592786#1"/>
    </person>
    <person id="ped10" depart="15.17" type="ped_pedestrian">
        <walk from="4998733" to="408557306"/>
    </person>
    <person id="ped11" depart="16.68" type="ped_pedestrian">
        <walk from="201905735" to="-5010634#1"/>
    </person>
    <person id="ped12" depart="18.20" type="ped_pedestrian">
        <walk from="867523028#8" to="185548137"/>
    </person>
    <person id="ped13" depart="19.72" type="ped_pedestrian">
        <walk from="-28151969" to="-29143417#10"/>
    </person>
    <person id="ped14" depart="21.23" type="ped_pedestrian">
        <walk from="57779703#0" to="406930203#11"/>
    </person>
    <person id="ped15" depart="22.75" type="ped_pedestrian">
        <walk from="5010631#2" to="463419962"/>
    </person>
    <person id="ped16" depart="24.27" type="ped_pedestrian">
        <walk from="339590032#1" to="912905967#4"/>
    </person>
    <person id="ped17" depart="25.78" type="ped_pedestrian">
        <walk from="236750647#3" to="342760499"/>
    </person>
    <person id="ped18" depart="27.30" type="ped_pedestrian">
        <walk from="503851706#5" to="406947993"/>
    </person>
    <person id="ped19" depart="28.82" type="ped_pedestrian">
        <walk from="692222416" to="373792735#0"/>
    </person>
    <person id="ped20" depart="30.33" type="ped_pedestrian">
        <walk from="408572942" to="-173497757"/>
    </person>
    <person id="ped21" depart="31.85" type="ped_pedestrian">
        <walk from="1008707157" to="149641244#2"/>
    </person>
    <person id="ped22" depart="33.37" type="ped_pedestrian">
        <walk from="-26987767#0" to="1024589781#2"/>
    </person>
    <person id="ped23" depart="34.88" type="ped_pedestrian">
        <walk from="-29143417#9" to="128846309#5"/>
    </person>
    <person id="ped24" depart="36.40" type="ped_pedestrian">
        <walk from="406954674#0" to="233472404#3"/>
    </person>
    <person id="ped25" depart="37.92" type="ped_pedestrian">
        <walk from="236748200" to="-898567932#1"/>
    </person>
    <person id="ped26" depart="39.43" type="ped_pedestrian">
        <walk from="126041829#0" to="867513157#3"/>
    </person>
    <person id="ped27" depart="40.95" type="ped_pedestrian">
        <walk from="407661809" to="406947967"/>
    </person>
    <person id="ped28" depart="42.47" type="ped_pedestrian">
        <walk from="-625737122#4" to="463418025"/>
    </person>
    <person id="ped29" depart="43.98" type="ped_pedestrian">
        <walk from="-543296389#0" to="236750647#5"/>
    </person>
    <person id="ped30" depart="45.50" type="ped_pedestrian">
        <walk from="937875352" to="406956676"/>
    </person>
    <person id="ped31" depart="47.02" type="ped_pedestrian">
        <walk from="353076269#0" to="407691202"/>
    </person>
    <person id="ped32" depart="48.53" type="ped_pedestrian">
        <walk from="559327256#2" to="4952856#4"/>
    </person>
    <person id="ped33" depart="50.05" type="ped_pedestrian">
        <walk from="1010281285#1" to="-140050749#1"/>
    </person>
    <person id="ped34" depart="51.57" type="ped_pedestrian">
        <walk from="173497772#0" to="126041829#2"/>
    </person>
    <person id="ped35" depart="53.08" type="ped_pedestrian">
        <walk from="-899607575" to="867513160#4"/>
    </person>
    <person id="ped36" depart="54.60" type="ped_pedestrian">
        <walk from="777241601#2" to="173497766"/>
    </person>
    <person id="ped37" depart="56.12" type="ped_pedestrian">
        <walk from="407661829" to="245072754#1"/>
    </person>
    <person id="ped38" depart="57.63" type="ped_pedestrian">
        <walk from="835565345#1" to="27297633#4"/>
    </person>
    <person id="ped39" depart="59.15" type="ped_pedestrian">
        <walk from="126041825#2" to="1032957285#2"/>
    </person>
    <person id="ped40" depart="60.67" type="ped_pedestrian">
        <walk from="353079497#1" to="124875756#0"/>
    </person>
    <person id="ped41" depart="62.18" type="ped_pedestrian">
        <walk from="399423763#1" to="82235424#0"/>
    </person>
    <person id="ped42" depart="63.70" type="ped_pedestrian">
        <walk from="245072761#2" to="-93629726#2"/>
    </person>
    <person id="ped43" depart="65.22" type="ped_pedestrian">
        <walk from="977070592#1" to="307625166"/>
    </person>
    <person id="ped44" depart="66.73" type="ped_pedestrian">
        <walk from="-27608418#2" to="-173497767"/>
    </person>
    <person id="ped45" depart="68.25" type="ped_pedestrian">
        <walk from="-31247471#0" to="406951828"/>
    </person>
    <person id="ped46" depart="69.77" type="ped_pedestrian">
        <walk from="4998691#2" to="26420693#0"/>
    </person>
    <person id="ped47" depart="71.28" type="ped_pedestrian">
        <walk from="-25527470#1" to="236750649#0"/>
    </person>
    <person id="ped48" depart="72.80" type="ped_pedestrian">
        <walk from="961343908#0" to="328764038#1"/>
    </person>
    <person id="ped49" depart="74.32" type="ped_pedestrian">
        <walk from="912905967#1" to="655674852#0"/>
    </person>
    <person id="ped50" depart="75.83" type="ped_pedestrian">
        <walk from="-1024973779#3" to="44024903#0"/>
    </person>
    <person id="ped51" depart="77.35" type="ped_pedestrian">
        <walk from="407691168" to="339590033#1"/>
    </person>
    <person id="ped52" depart="78.87" type="ped_pedestrian">
        <walk from="126041829#0" to="406956678"/>
    </person>
    <person id="ped53" depart="80.38" type="ped_pedestrian">
        <walk from="-31261119" to="26593077#2"/>
    </person>
    <person id="ped54" depart="81.90" type="ped_pedestrian">
        <walk from="26987767#7" to="867523028#2"/>
    </person>
    <person id="ped55" depart="83.42" type="ped_pedestrian">
        <walk from="777241600" to="124875757"/>
    </person>
    <person id="ped56" depart="84.93" type="ped_pedestrian">
        <walk from="30108985#6" to="-778380374#0"/>
    </person>
    <person id="ped57" depart="86.45" type="ped_pedestrian">
        <walk from="835565342#1" to="718781523"/>
    </person>
    <person id="ped58" depart="87.97" type="ped_pedestrian">
        <walk from="164843380" to="406956673"/>
    </person>
    <person id="ped59" depart="89.48" type="ped_pedestrian">
        <walk from="406947967" to="-5010631#3"/>
    </person>
    <person id="ped60" depart="91.00" type="ped_pedestrian">
        <walk from="48834943#1" to="339590808#11"/>
    </person>
    <person id="ped61" depart="92.52" type="ped_pedestrian">
        <walk from="4952863" to="328764040#1"/>
    </person>
    <person id="ped62" depart="94.03" type="ped_pedestrian">
        <walk from="-1010281285#1" to="180819472#2"/>
    </person>
    <person id="ped63" depart="95.55" type="ped_pedestrian">
        <walk from="-124875756#0" to="84790899#6"/>
    </person>
    <person id="ped64" depart="97.07" type="ped_pedestrian">
        <walk from="777241632" to="513301015"/>
    </person>
    <person id="ped65" depart="98.58" type="ped_pedestrian">
        <walk from="172206106" to="-22923803"/>
    </person>
    <person id="ped66" depart="100.10" type="ped_pedestrian">
        <walk from="777241622#2" to="867516063#1"/>
    </person>
    <person id="ped67" depart="101.62" type="ped_pedestrian">
        <walk from="-26987767#7" to="30062228#4"/>
    </person>
    <person id="ped68" depart="103.13" type="ped_pedestrian">
        <walk from="-25950853#0" to="48834939#6"/>
    </person>
    <person id="ped69" depart="104.65" type="ped_pedestrian">
        <walk from="48834945#0" to="-44024903#1"/>
    </person>
    <person id="ped70" depart="106.17" type="ped_pedestrian">
        <walk from="29067238" to="342007260"/>
    </person>
    <person id="ped71" depart="107.68" type="ped_pedestrian">
        <walk from="126041825#2" to="72101115#0"/>
    </person>
    <person id="ped72" depart="109.20" type="ped_pedestrian">
        <walk from="26420693#2" to="-912905969"/>
    </person>
    <person id="ped73" depart="110.72" type="ped_pedestrian">
        <walk from="339590808#11" to="463419963"/>
    </person>
    <person id="ped74" depart="112.23" type="ped_pedestrian">
        <walk from="-84789886#0" to="172855397#1"/>
    </person>
    <person id="ped75" depart="113.75" type="ped_pedestrian">
        <walk from="9567011#5" to="407661813"/>
    </person>
    <person id="ped76" depart="115.27" type="ped_pedestrian">
        <walk from="26644790#2" to="314957338#1"/>
    </person>
    <person id="ped77" depart="116.78" type="ped_pedestrian">
        <walk from="-35302221#2" to="-963458951#0"/>
    </person>
    <person id="ped78" depart="118.30" type="ped_pedestrian">
        <walk from="194342534#0" to="406390904"/>
    </person>
    <person id="ped79" depart="119.82" type="ped_pedestrian">
        <walk from="10130488#0" to="-948342150"/>
    </person>
    <person id="ped80" depart="121.33" type="ped_pedestrian">
        <walk from="-26088764#1" to="406951833#1"/>
    </person>
    <person id="ped81" depart="122.85" type="ped_pedestrian">
        <walk from="1010281285#1" to="828476240#2"/>
    </person>
    <person id="ped82" depart="124.37" type="ped_pedestrian">
        <walk from="647521002" to="-26088764#1"/>
    </person>
    <person id="ped83" depart="125.88" type="ped_pedestrian">
        <walk from="1024973779#0" to="407673211"/>
    </person>
    <person id="ped84" depart="127.40" type="ped_pedestrian">
        <walk from="-9226410" to="-4583428"/>
    </person>
    <person id="ped85" depart="128.92" type="ped_pedestrian">
        <walk from="867513157#1" to="369979755#5"/>
    </person>
    <person id="ped86" depart="130.43" type="ped_pedestrian">
        <walk from="29065101" to="496920315#5"/>
    </person>
    <person id="ped87" depart="131.95" type="ped_pedestrian">
        <walk from="5010631#3" to="-82235424#1"/>
    </person>
    <person id="ped88" depart="133.47" type="ped_pedestrian">
        <walk from="-29143417#2" to="26591680#0"/>
    </person>
    <person id="ped89" depart="134.98" type="ped_pedestrian">
        <walk from="26420693#3" to="27608418#2"/>
    </person>
    <person id="ped90" depart="136.50" type="ped_pedestrian">
        <walk from="463418025" to="407677447#1"/>
    </person>
    <person id="ped91" depart="138.01" type="ped_pedestrian">
        <walk from="936861421#3" to="-29143417#4"/>
    </person>
    <person id="ped92" depart="139.53" type="ped_pedestrian">
        <walk from="253046779" to="194342534#2"/>
    </person>
    <person id="ped93" depart="141.05" type="ped_pedestrian">
        <walk from="692222416" to="1032957286#1"/>
    </person>
    <person id="ped94" depart="142.56" type="ped_pedestrian">
        <walk from="-82235424#1" to="26987767#1"/>
    </person>
    <person id="ped95" depart="144.08" type="ped_pedestrian">
        <walk from="26420693#0" to="128846310#0"/>
    </person>
    <person id="ped96" depart="145.60" type="ped_pedestrian">
        <walk from="1032957286#3" to="84789883#1"/>
    </person>
    <person id="ped97" depart="147.11" type="ped_pedestrian">
        <walk from="26644812#2" to="692222413"/>
    </person>
    <person id="ped98" depart="148.63" type="ped_pedestrian">
        <walk from="342759557#0" to="-180790126#0"/>
    </person>
    <person id="ped99" depart="150.15" type="ped_pedestrian">
        <walk from="986444652#1" to="548470152#2"/>
    </person>
    <person id="ped100" depart="151.66" type="ped_pedestrian">
        <walk from="899096769#1" to="84789886#0"/>
    </person>
    <person id="ped101" depart="153.18" type="ped_pedestrian">
        <walk from="57779703#2" to="-558831338"/>
    </person>
    <person id="ped102" depart="154.70" type="ped_pedestrian">
        <walk from="30062228#4" to="-917841007"/>
    </person>
    <person id="ped103" depart="156.21" type="ped_pedestrian">
        <walk from="24855434#1" to="-23309134"/>
    </person>
    <person id="ped104" depart="157.73" type="ped_pedestrian">
        <walk from="236750647#4" to="937875347#0"/>
    </person>
    <person id="ped105" depart="159.25" type="ped_pedestrian">
        <walk from="126041825#2" to="496920315#4"/>
    </person>
    <person id="ped106" depart="160.76" type="ped_pedestrian">
        <walk from="270461283" to="26420693#2"/>
    </person>
    <person id="ped107" depart="162.28" type="ped_pedestrian">
        <walk from="867523028#8" to="959829237"/>
    </person>
    <person id="ped108" depart="163.80" type="ped_pedestrian">
        <walk from="35302221#1" to="419902855#0"/>
    </person>
    <person id="ped109" depart="165.31" type="ped_pedestrian">
        <walk from="-5010633#2" to="158722443#0"/>
    </person>
    <person id="ped110" depart="166.83" type="ped_pedestrian">
        <walk from="899096765" to="374535115#1"/>
    </person>
    <person id="ped111" depart="168.35" type="ped_pedestrian">
        <walk from="339590808#6" to="474851987#1"/>
    </person>
    <person id="ped112" depart="169.86" type="ped_pedestrian">
        <walk from="-22923704" to="399423763#0"/>
    </person>
    <person id="ped113" depart="171.38" type="ped_pedestrian">
        <walk from="30108986" to="616371581"/>
    </person>
    <person id="ped114" depart="172.90" type="ped_pedestrian">
        <walk from="-5010636#1" to="872355863"/>
    </person>
    <person id="ped115" depart="174.41" type="ped_pedestrian">
        <walk from="-26987767#1" to="-8083974#1"/>
    </person>
    <person id="ped116" depart="175.93" type="ped_pedestrian">
        <walk from="406924477" to="407677451"/>
    </person>
    <person id="ped117" depart="177.45" type="ped_pedestrian">
        <walk from="1024592786#12" to="-35302221#0"/>
    </person>
    <person id="ped118" depart="178.96" type="ped_pedestrian">
        <walk from="8080532#1" to="1032957285#1"/>
    </person>
    <person id="ped119" depart="180.48" type="ped_pedestrian">
        <walk from="406924476" to="406947995#0"/>
    </person>
    <person id="ped120" depart="182.00" type="ped_pedestrian">
        <walk from="263672180#1" to="393175886#1"/>
    </person>
    <person id="ped121" depart="183.51" type="ped_pedestrian">
        <walk from="316874895#1" to="867513156#4"/>
    </person>
    <person id="ped122" depart="185.03" type="ped_pedestrian">
        <walk from="-888868305" to="412747793"/>
    </person>
    <person id="ped123" depart="186.55" type="ped_pedestrian">
        <walk from="1024973779#2" to="245072754#1"/>
    </person>
    <person id="ped124" depart="188.06" type="ped_pedestrian">
        <walk from="407673215" to="165778776"/>
    </person>
    <person id="ped125" depart="189.58" type="ped_pedestrian">
        <walk from="173497772#1" to="475011650#0"/>
    </person>
    <person id="ped126" depart="191.10" type="ped_pedestrian">
        <walk from="-26153832#1" to="27297633#3"/>
    </person>
    <person id="ped127" depart="192.61" type="ped_pedestrian">
        <walk from="986444652#0" to="961343908#0"/>
    </person>
    <person id="ped128" depart="194.13" type="ped_pedestrian">
        <walk from="-26419634#0" to="-912905970#1"/>
    </person>
    <person id="ped129" depart="195.65" type="ped_pedestrian">
        <walk from="126041825#2" to="867513156#1"/>
    </person>
    <person id="ped130" depart="197.16" type="ped_pedestrian">
        <walk from="783299765" to="778380373"/>
    </person>
    <person id="ped131" depart="198.68" type="ped_pedestrian">
        <walk from="23486469" to="-5010637#0"/>
    </person>
    <person id="ped132" depart="200.20" type="ped_pedestrian">
        <walk from="543296389#1" to="408572941"/>
    </person>
    <person id="ped133" depart="201.71" type="ped_pedestrian">
        <walk from="406947981" to="937875348#1"/>
    </person>
    <person id="ped134" depart="203.23" type="ped_pedestrian">
        <walk from="407661825" to="-1024592786#2"/>
    </person>
    <person id="ped135" depart="204.75" type="ped_pedestrian">
        <walk from="5010658#0" to="164843382#1"/>
    </person>
    <person id="ped136" depart="206.26" type="ped_pedestrian">
        <walk from="407661874#0" to="867513159#1"/>
    </person>
    <person id="ped137" depart="207.78" type="ped_pedestrian">
        <walk from="-493432296#2" to="-328764040#1"/>
    </person>
    <person id="ped138" depart="209.30" type="ped_pedestrian">
        <walk from="-30979977#0" to="349488863#0"/>
    </person>
    <person id="ped139" depart="210.81" type="ped_pedestrian">
        <walk from="128846306" to="406930203#14"/>
    </person>
    <person id="ped140" depart="212.33" type="ped_pedestrian">
        <walk from="413585866" to="-888868304"/>
    </person>
    <person id="ped141" depart="213.85" type="ped_pedestrian">
        <walk from="406954669" to="126041825#0"/>
    </person>
    <person id="ped142" depart="215.36" type="ped_pedestrian">
        <walk from="30072789#0" to="828476240#2"/>
    </person>
    <person id="ped143" depart="216.88" type="ped_pedestrian">
        <walk from="57778368#1" to="-28007162#2"/>
    </person>
    <person id="ped144" depart="218.40" type="ped_pedestrian">
        <walk from="26420693#3" to="128846309#3"/>
    </person>
    <person id="ped145" depart="219.91" type="ped_pedestrian">
        <walk from="-10130730" to="493432296#0"/>
    </person>
    <person id="ped146" depart="221.43" type="ped_pedestrian">
        <walk from="406954676#0" to="124875749"/>
    </person>
    <person id="ped147" depart="222.95" type="ped_pedestrian">
        <walk from="469205306#0" to="342760498"/>
    </person>
    <person id="ped148" depart="224.46" type="ped_pedestrian">
        <walk from="26569905#3" to="-1024973779#0"/>
    </person>
    <person id="ped149" depart="225.98" type="ped_pedestrian">
        <walk from="-26420698#2" to="8043984#1"/>
    </person>
    <person id="ped150" depart="227.50" type="ped_pedestrian">
        <walk from="828476235#2" to="33963525"/>
    </person>
    <person id="ped151" depart="229.01" type="ped_pedestrian">
        <walk from="543296389#2" to="392346085#1"/>
    </person>
    <person id="ped152" depart="230.53" type="ped_pedestrian">
        <walk from="-4998713#0" to="-43980603"/>
    </person>
    <person id="ped153" depart="232.05" type="ped_pedestrian">
        <walk from="172311092#0" to="828476230#1"/>
    </person>
    <person id="ped154" depart="233.56" type="ped_pedestrian">
        <walk from="4998710#1" to="655674852#0"/>
    </person>
    <person id="ped155" depart="235.08" type="ped_pedestrian">
        <walk from="828476230#1" to="-898567932#2"/>
    </person>
    <person id="ped156" depart="236.60" type="ped_pedestrian">
        <walk from="1032957286#2" to="-30062300#0"/>
    </person>
    <person id="ped157" depart="238.11" type="ped_pedestrian">
        <walk from="4952878#1" to="8058874"/>
    </person>
    <person id="ped158" depart="239.63" type="ped_pedestrian">
        <walk from="25943350" to="406947996"/>
    </person>
    <person id="ped159" depart="241.15" type="ped_pedestrian">
        <walk from="-5010633#2" to="84790900#0"/>
    </person>
    <person id="ped160" depart="242.66" type="ped_pedestrian">
        <walk from="694681348#3" to="917841007"/>
    </person>
    <person id="ped161" depart="244.18" type="ped_pedestrian">
        <walk from="5010635" to="790323075#0"/>
    </person>
    <person id="ped162" depart="245.70" type="ped_pedestrian">
        <walk from="-128846309#1" to="463420674#1"/>
    </person>
    <person id="ped163" depart="247.21" type="ped_pedestrian">
        <walk from="184553838#0" to="84790902#0"/>
    </person>
    <person id="ped164" depart="248.73" type="ped_pedestrian">
        <walk from="4998721#1" to="694681348#2"/>
    </person>
    <person id="ped165" depart="250.25" type="ped_pedestrian">
        <walk from="5010635" to="126041829#0"/>
    </person>
    <person id="ped166" depart="251.76" type="ped_pedestrian">
        <walk from="496920316#5" to="-31131383"/>
    </person>
    <person id="ped167" depart="253.28" type="ped_pedestrian">
        <walk from="72101115#0" to="629255348"/>
    </person>
    <person id="ped168" depart="254.80" type="ped_pedestrian">
        <walk from="-9567011#2" to="5010654#0"/>
    </person>
    <person id="ped169" depart="256.31" type="ped_pedestrian">
        <walk from="27541200#0" to="170553624#0"/>
    </person>
    <person id="ped170" depart="257.83" type="ped_pedestrian">
        <walk from="4998710#0" to="1008707157"/>
    </person>
    <person id="ped171" depart="259.35" type="ped_pedestrian">
        <walk from="-128846307#2" to="-837637173#2"/>
    </person>
    <person id="ped172" depart="260.86" type="ped_pedestrian">
        <walk from="184019777" to="694681348#3"/>
    </person>
    <person id="ped173" depart="262.38" type="ped_pedestrian">
        <walk from="898564143" to="128846310#3"/>
    </person>
    <person id="ped174" depart="263.90" type="ped_pedestrian">
        <walk from="406956679" to="245072761#2"/>
    </person>
    <person id="ped175" depart="265.41" type="ped_pedestrian">
        <walk from="93629726#1" to="339590032#1"/>
    </person>
    <person id="ped176" depart="266.93" type="ped_pedestrian">
        <walk from="867513159#1" to="-328764040#1"/>
    </person>
    <person id="ped177" depart="268.45" type="ped_pedestrian">
        <walk from="899607575" to="-778380374#0"/>
    </person>
    <person id="ped178" depart="269.96" type="ped_pedestrian">
        <walk from="872355896#2" to="126041825#3"/>
    </person>
    <person id="ped179" depart="271.48" type="ped_pedestrian">
        <walk from="-31131383" to="26593077#2"/>
    </person>
    <person id="ped180" depart="273.00" type="ped_pedestrian">
        <walk from="4583428" to="173497759"/>
    </person>
    <person id="ped181" depart="274.51" type="ped_pedestrian">
        <walk from="406930203#8" to="31247400#0"/>
    </person>
    <person id="ped182" depart="276.03" type="ped_pedestrian">
        <walk from="237931024#0" to="373792733"/>
    </person>
    <person id="ped183" depart="277.55" type="ped_pedestrian">
        <walk from="113145682#0" to="408576594"/>
    </person>
    <person id="ped184" depart="279.06" type="ped_pedestrian">
        <walk from="-10130488#1" to="84789883#7"/>
    </person>
    <person id="ped185" depart="280.58" type="ped_pedestrian">
        <walk from="339590808#0" to="426750224"/>
    </person>
    <person id="ped186" depart="282.10" type="ped_pedestrian">
        <walk from="469205306#1" to="407673214#0"/>
    </person>
    <person id="ped187" depart="283.61" type="ped_pedestrian">
        <walk from="233472404#2" to="-25950853#1"/>
    </person>
    <person id="ped188" depart="285.13" type="ped_pedestrian">
        <walk from="407666590" to="184019789#2"/>
    </person>
    <person id="ped189" depart="286.65" type="ped_pedestrian">
        <walk from="173497762" to="57779703#1"/>
    </person>
    <person id="ped190" depart="288.16" type="ped_pedestrian">
        <walk from="426750224" to="169786811"/>
    </person>
    <person id="ped191" depart="289.68" type="ped_pedestrian">
        <walk from="172855387#0" to="25949685"/>
    </person>
    <person id="ped192" depart="291.20" type="ped_pedestrian">
        <walk from="253046779" to="15243475#0"/>
    </person>
    <person id="ped193" depart="292.71" type="ped_pedestrian">
        <walk from="-413585866" to="26419634#0"/>
    </person>
    <person id="ped194" depart="294.23" type="ped_pedestrian">
        <walk from="867513159#3" to="407677453#0"/>
    </person>
    <person id="ped195" depart="295.75" type="ped_pedestrian">
        <walk from="828476235#0" to="406947988"/>
    </person>
    <person id="ped196" depart="297.26" type="ped_pedestrian">
        <walk from="170511032#0" to="342007248#2"/>
    </person>
    <person id="ped197" depart="298.78" type="ped_pedestrian">
        <walk from="-1010281285#0" to="147396079#1"/>
    </person>
    <person id="ped198" depart="300.30" type="ped_pedestrian">
        <walk from="26570034#8" to="37862596"/>
    </person>
    <person id="ped199" depart="301.81" type="ped_pedestrian">
        <walk from="407661827" to="27541607#4"/>
    </person>
    <person id="ped200" depart="303.33" type="ped_pedestrian">
        <walk from="26644812#0" to="-917841007"/>
    </person>
    <person id="ped201" depart="304.85" type="ped_pedestrian">
        <walk from="29066935#0" to="828476231#1"/>
    </person>
    <person id="ped202" depart="306.36" type="ped_pedestrian">
        <walk from="4998710#1" to="-625737122#2"/>
    </person>
    <person id="ped203" depart="307.88" type="ped_pedestrian">
        <walk from="-26987767#6" to="31261119"/>
    </person>
    <person id="ped204" depart="309.40" type="ped_pedestrian">
        <walk from="406951834#2" to="185258175"/>
    </person>
    <person id="ped205" depart="310.91" type="ped_pedestrian">
        <walk from="5010658#3" to="475011648#6"/>
    </person>
    <person id="ped206" depart="312.43" type="ped_pedestrian">
        <walk from="407677447#0" to="-963458951#0"/>
    </person>
    <person id="ped207" depart="313.95" type="ped_pedestrian">
        <walk from="-84789883#3" to="-128846309#0"/>
    </person>
    <person id="ped208" depart="315.46" type="ped_pedestrian">
        <walk from="1032957284#4" to="29067238"/>
    </person>
    <person id="ped209" depart="316.98" type="ped_pedestrian">
        <walk from="57779705#0" to="-26153832#2"/>
    </person>
    <person id="ped210" depart="318.50" type="ped_pedestrian">
        <walk from="25950853#0" to="406951831#1"/>
    </person>
    <person id="ped211" depart="320.01" type="ped_pedestrian">
        <walk from="-837637174#2" to="408557302"/>
    </person>
    <person id="ped212" depart="321.53" type="ped_pedestrian">
        <walk from="30108944#1" to="1032957284#3"/>
    </person>
    <person id="ped213" depart="323.05" type="ped_pedestrian">
        <walk from="407661830" to="-1024589781#3"/>
    </person>
    <person id="ped214" depart="324.56" type="ped_pedestrian">
        <walk from="475011648#6" to="491136378#2"/>
    </person>
    <person id="ped215" depart="326.08" type="ped_pedestrian">
        <walk from="-307625166" to="26420698#1"/>
    </person>
    <person id="ped216" depart="327.60" type="ped_pedestrian">
        <walk from="-694681348#4" to="867523029#0"/>
    </person>
    <person id="ped217" depart="329.11" type="ped_pedestrian">
        <walk from="314957338#2" to="-180790117#0"/>
    </person>
    <person id="ped218" depart="330.63" type="ped_pedestrian">
        <walk from="1032957286#2" to="57779703#1"/>
    </person>
    <person id="ped219" depart="332.15" type="ped_pedestrian">
        <walk from="271227046#0" to="4998720#0"/>
    </person>
    <person id="ped220" depart="333.66" type="ped_pedestrian">
        <walk from="407673208" to="937875348#3"/>
    </person>
    <person id="ped221" depart="335.18" type="ped_pedestrian">
        <walk from="406924478" to="867519184"/>
    </person>
    <person id="ped222" depart="336.70" type="ped_pedestrian">
        <walk from="8083974#0" to="406947983"/>
    </person>
    <person id="ped223" depart="338.21" type="ped_pedestrian">
        <walk from="419902855#1" to="30156334#0"/>
    </person>
    <person id="ped224" depart="339.73" type="ped_pedestrian">
        <walk from="503851706#7" to="342007248#2"/>
    </person>
    <person id="ped225" depart="341.25" type="ped_pedestrian">
        <walk from="82235423" to="474366375"/>
    </person>
    <person id="ped226" depart="342.76" type="ped_pedestrian">
        <walk from="29067229#1" to="113150039#1"/>
    </person>
    <person id="ped227" depart="344.28" type="ped_pedestrian">
        <walk from="1032957285#3" to="406954676#1"/>
    </person>
    <person id="ped228" depart="345.80" type="ped_pedestrian">
        <walk from="48834945#0" to="314957339#4"/>
    </person>
    <person id="ped229" depart="347.31" type="ped_pedestrian">
        <walk from="406951827" to="128846307#3"/>
    </person>
    <person id="ped230" depart="348.83" type="ped_pedestrian">
        <walk from="-26569905#2" to="140050751#0"/>
    </person>
    <person id="ped231" depart="350.35" type="ped_pedestrian">
        <walk from="128139912#1" to="179638536#2"/>
    </person>
    <person id="ped232" depart="351.86" type="ped_pedestrian">
        <walk from="339590808#12" to="-4952861#1"/>
    </person>
    <person id="ped233" depart="353.38" type="ped_pedestrian">
        <walk from="10130730" to="408544769#1"/>