<?xml version="1.0" encoding="UTF-8"?>

<!-- generated on 2022-03-05 00:09:48 by Eclipse SUMO duarouter Version 1.12.0
<configuration xmlns:xsi="http://www.w3.org/2001/XMLSchema-instance" xsi:noNamespaceSchemaLocation="http://sumo.dlr.de/xsd/duarouterConfiguration.xsd">

    <input>
        <net-file value="C:\Users\Marku\Sumo\2022-03-05-00-09-37\osm.net.xml"/>
        <route-files value="C:\Users\Marku\Sumo\2022-03-05-00-09-37\osm.bicycle.trips.xml"/>
    </input>

    <output>
        <output-file value="C:\Users\Marku\Sumo\2022-03-05-00-09-37\osm.bicycle.trips.xml.tmp"/>
        <write-trips value="true"/>
    </output>

    <time>
        <begin value="0"/>
        <end value="3600"/>
    </time>

    <report>
        <no-warnings value="true"/>
        <ignore-errors value="true"/>
        <no-step-log value="true"/>
    </report>

</configuration>
-->

<routes xmlns:xsi="http://www.w3.org/2001/XMLSchema-instance" xsi:noNamespaceSchemaLocation="http://sumo.dlr.de/xsd/routes_file.xsd">
    <vType id="bike_bicycle" vClass="bicycle"/>
    <trip id="bike0" type="bike_bicycle" depart="0.00" departLane="best" from="342760499" to="-113300211#0"/>
    <trip id="bike1" type="bike_bicycle" depart="3.16" departLane="best" departSpeed="max" from="-778380373" to="-4998714#2"/>
    <trip id="bike2" type="bike_bicycle" depart="6.32" departLane="best" departSpeed="max" from="469067105" to="39813826#1"/>
    <trip id="bike3" type="bike_bicycle" depart="9.47" departLane="best" from="8083974#0" to="-242726716"/>
    <trip id="bike4" type="bike_bicycle" depart="12.63" departLane="best" from="164843382#1" to="-128139910#0"/>
    <trip id="bike5" type="bike_bicycle" depart="15.79" departLane="best" from="-4952861#2" to="25949689"/>
    <trip id="bike6" type="bike_bicycle" depart="18.95" departLane="best" from="-113300211#0" to="-4583400#2"/>
    <trip id="bike7" type="bike_bicycle" depart="22.11" departLane="best" from="35302218" to="26987767#2"/>
    <trip id="bike8" type="bike_bicycle" depart="25.26" departLane="best" departSpeed="max" from="-4952862" to="30323418#1"/>
    <trip id="bike9" type="bike_bicycle" depart="28.42" departLane="best" from="5010645#3" to="-10130730"/>
    <trip id="bike10" type="bike_bicycle" depart="31.58" departLane="best" from="5010642" to="43403451"/>
    <trip id="bike11" type="bike_bicycle" depart="34.74" departLane="best" departSpeed="max" from="1024589781#0" to="-31247471#0"/>
    <trip id="bike12" type="bike_bicycle" depart="37.90" departLane="best" from="899096768#0" to="1024592786#4"/>
    <trip id="bike13" type="bike_bicycle" depart="41.05" departLane="best" from="-242834250" to="-25943352#0"/>
    <trip id="bike14" type="bike_bicycle" depart="44.21" departLane="best" from="679596251#1" to="31247471#1"/>
    <trip id="bike15" type="bike_bicycle" depart="47.37" departLane="best" from="5010645#0" to="4583445#5"/>
    <trip id="bike16" type="bike_bicycle" depart="50.53" departLane="best" from="26569905#2" to="9226541#0"/>
    <trip id="bike17" type="bike_bicycle" depart="53.69" departLane="best" from="126046671#1" to="27033537#0"/>
    <trip id="bike18" type="bike_bicycle" depart="56.84" departLane="best" from="571594915#0" to="328764035#0"/>
    <trip id="bike19" type="bike_bicycle" depart="60.00" departLane="best" from="778380374#0" to="30062228#4"/>
    <trip id="bike20" type="bike_bicycle" depart="63.16" departLane="best" from="441635693#1" to="-140050749#0"/>
    <trip id="bike21" type="bike_bicycle" depart="66.32" departLane="best" departSpeed="max" from="-4998704" to="-877619596#1"/>
    <trip id="bike23" type="bike_bicycle" depart="72.63" departLane="best" departSpeed="max" from="-25943350" to="-84192046#0"/>
    <trip id="bike24" type="bike_bicycle" depart="75.79" departLane="best" from="33963523" to="126046671#1"/>
    <trip id="bike27" type="bike_bicycle" depart="85.27" departLane="best" from="35302217#1" to="316874895#1"/>
    <trip id="bike28" type="bike_bicycle" depart="88.42" departLane="best" from="-339590033#3" to="4583445#4"/>
    <trip id="bike29" type="bike_bicycle" depart="91.58" departLane="best" from="-328764035#0" to="128846310#3"/>
    <trip id="bike30" type="bike_bicycle" depart="94.74" departLane="best" from="95194308#1" to="349495913"/>
    <trip id="bike31" type="bike_bicycle" depart="97.90" departLane="best" from="26987767#8" to="406930203#14"/>
    <trip id="bike32" type="bike_bicycle" depart="101.06" departLane="best" from="655674851" to="4998714#3"/>
    <trip id="bike33" type="bike_bicycle" depart="104.21" departLane="best" departSpeed="max" from="-4998704" to="-128846307#0"/>
    <trip id="bike34" type="bike_bicycle" depart="107.37" departLane="best" from="-923881325#3" to="-8079193"/>
    <trip id="bike35" type="bike_bicycle" depart="110.53" departLane="best" from="-4583445#4" to="8900171#4"/>
    <trip id="bike36" type="bike_bicycle" depart="113.69" departLane="best" from="8072723#0" to="-9567011#4"/>
    <trip id="bike37" type="bike_bicycle" depart="116.85" departLane="best" from="35302221#2" to="15243450#2"/>
    <trip id="bike38" type="bike_bicycle" depart="120.00" departLane="best" departSpeed="max" from="84192046#0" to="208876058#1"/>
    <trip id="bike40" type="bike_bicycle" depart="126.32" departLane="best" from="271227046#0" to="-777241622#0"/>
    <trip id="bike41" type="bike_bicycle" depart="129.48" departLane="best" from="30062300#1" to="8089315#0"/>
    <trip id="bike42" type="bike_bicycle" depart="132.64" departLane="best" from="140050742#1" to="-4998697#1"/>
    <trip id="bike43" type="bike_bicycle" depart="135.79" departLane="best" from="977070592#1" to="25950853#0"/>
    <trip id="bike44" type="bike_bicycle" depart="138.95" departLane="best" from="-242726716" to="-140050749#1"/>
    <trip id="bike45" type="bike_bicycle" depart="142.11" departLane="best" from="-25950273#2" to="329030549#4"/>
    <trip id="bike47" type="bike_bicycle" depart="148.43" departLane="best" departSpeed="max" from="-172986930" to="13275666#1"/>
    <trip id="bike48" type="bike_bicycle" depart="151.59" departLane="best" from="9567011#5" to="26569832#1"/>
    <trip id="bike49" type="bike_bicycle" depart="154.74" departLane="best" from="9226410" to="778380373"/>
    <trip id="bike50" type="bike_bicycle" depart="157.90" departLane="best" departSpeed="max" from="-1024592786#12" to="4583400#2"/>
    <trip id="bike51" type="bike_bicycle" depart="161.06" departLane="best" from="406930203#0" to="26592556#2"/>
    <trip id="bike53" type="bike_bicycle" depart="167.38" departLane="best" from="-26420698#2" to="173497767"/>
    <trip id="bike54" type="bike_bicycle" depart="170.53" departLane="best" from="180790117#1" to="899096765"/>
    <trip id="bike55" type="bike_bicycle" depart="173.69" departLane="best" from="8072718#3" to="-789285090#1"/>
    <trip id="bike56" type="bike_bicycle" depart="176.85" departLane="best" from="245118336#2" to="-373792735#0"/>
    <trip id="bike57" type="bike_bicycle" depart="180.01" departLane="best" from="837637174#3" to="8072684#2"/>
    <trip id="bike58" type="bike_bicycle" depart="183.17" departLane="best" from="-84789883#3" to="349488863#1"/>
    <trip id="bike60" type="bike_bicycle" depart="189.48" departLane="best" from="4998691#0" to="26791805"/>
    <trip id="bike61" type="bike_bicycle" depart="192.64" departLane="best" from="4998714#0" to="26569905#0"/>
    <trip id="bike62" type="bike_bicycle" depart="195.80" departLane="best" from="-1010281285#0" to="10130639#0"/>
    <trip id="bike63" type="bike_bicycle" depart="198.96" departLane="best" departSpeed="max" from="-1024973779#4" to="84790900#0"/>
    <trip id="bike64" type="bike_bicycle" depart="202.11" departLane="best" from="8072955#1" to="577787559#1"/>
    <trip id="bike65" type="bike_bicycle" depart="205.27" departLane="best" from="-899096765" to="-173497757"/>
    <trip id="bike66" type="bike_bicycle" depart="208.43" departLane="best" from="8072955#0" to="898564143"/>
    <trip id="bike68" type="bike_bicycle" depart="214.75" departLane="best" from="-179638536#0" to="4998695#0"/>
    <trip id="bike69" type="bike_bicycle" depart="217.90" departLane="best" from="4998695#1" to="-271227047#1"/>
    <trip id="bike70" type="bike_bicycle" depart="221.06" departLane="best" from="208876059#6" to="26987767#7"/>
    <trip id="bike71" type="bike_bicycle" depart="224.22" departLane="best" from="-625737122#4" to="8072689"/>
    <trip id="bike72" type="bike_bicycle" depart="227.38" departLane="best" from="170511029#0" to="-4952856#3"/>
    <trip id="bike74" type="bike_bicycle" depart="233.69" departLane="best" from="-442794489" to="-9567011#0"/>
    <trip id="bike75" type="bike_bicycle" depart="236.85" departLane="best" from="9567011#4" to="35302221#0"/>
    <trip id="bike76" type="bike_bicycle" depart="240.01" departLane="best" from="172311092#0" to="26153832#1"/>
    <trip id="bike77" type="bike_bicycle" depart="243.17" departLane="best" from="-26987767#0" to="-4998714#5"/>
    <trip id="bike78" type="bike_bicycle" depart="246.33" departLane="best" from="10130730" to="30323418#0"/>
    <trip id="bike79" type="bike_bicycle" depart="249.48" departLane="best" from="-4998714#1" to="-4998697#2"/>
    <trip id="bike80" type="bike_bicycle" depart="252.64" departLane="best" from="-179638536#2" to="339590033#1"/>
    <trip id="bike81" type="bike_bicycle" depart="255.80" departLane="best" departSpeed="max" from="-4998704" to="82235422"/>
    <trip id="bike82" type="bike_bicycle" depart="258.96" departLane="best" from="777241622#2" to="-180819472#1"/>
    <trip id="bike83" type="bike_bicycle" depart="262.12" departLane="best" from="-5010633#1" to="374535115#0"/>
    <trip id="bike84" type="bike_bicycle" depart="265.27" departLane="best" from="-4583564#3" to="-27608418#2"/>
    <trip id="bike85" type="bike_bicycle" depart="268.43" departLane="best" departSpeed="max" from="877619596#0" to="28007162#2"/>
    <trip id="bike86" type="bike_bicycle" depart="271.59" departLane="best" from="208876059#3" to="4998730"/>
    <trip id="bike87" type="bike_bicycle" depart="274.75" departLane="best" from="5010645#1" to="-442794472"/>
    <trip id="bike88" type="bike_bicycle" depart="277.91" departLane="best" from="-25527470#1" to="172986930"/>
    <trip id="bike89" type="bike_bicycle" depart="281.06" departLane="best" from="170511029#0" to="225488657"/>
    <trip id="bike90" type="bike_bicycle" depart="284.22" departLane="best" from="4583564#2" to="393175884#1"/>
    <trip id="bike91" type="bike_bicycle" depart="287.38" departLane="best" from="93629726#2" to="-25950172#1"/>
    <trip id="bike92" type="bike_bicycle" depart="290.54" departLane="best" from="140050749#2" to="1024973779#1"/>
    <trip id="bike93" type="bike_bicycle" depart="293.70" departLane="best" from="778380374#0" to="-558538714"/>
    <trip id="bike95" type="bike_bicycle" depart="300.01" departLane="best" from="164843382#1" to="-84192046#1"/>
    <trip id="bike96" type="bike_bicycle" depart="303.17" departLane="best" from="-5010658#2" to="84789883#7"/>
    <trip id="bike97" type="bike_bicycle" depart="306.33" departLane="best" from="173497757" to="778380374#0"/>
    <trip id="bike98" type="bike_bicycle" depart="309.49" departLane="best" from="26987767#14" to="-15243463#0"/>
    <trip id="bike99" type="bike_bicycle" depart="312.64" departLane="best" from="991807353" to="625737122#3"/>
    <trip id="bike100" type="bike_bicycle" depart="315.80" departLane="best" from="912905969" to="84790898#1"/>
    <trip id="bike101" type="bike_bicycle" depart="318.96" departLane="best" from="679596251#3" to="-339590033#3"/>
    <trip id="bike102" type="bike_bicycle" depart="322.12" departLane="best" from="233474281#1" to="-4952861#1"/>
    <trip id="bike103" type="bike_bicycle" depart="325.28" departLane="best" from="140050748#1" to="-173497759"/>
    <trip id="bike105" type="bike_bicycle" depart="331.59" departLane="best" from="-625737122#4" to="4998726"/>
    <trip id="bike106" type="bike_bicycle" depart="334.75" departLane="best" from="180819472#0" to="172206106"/>
    <trip id="bike107" type="bike_bicycle" depart="337.91" departLane="best" from="899096768#1" to="9567011#4"/>
    <trip id="bike108" type="bike_bicycle" depart="341.07" departLane="best" from="26987767#7" to="4583400#0"/>
    <trip id="bike109" type="bike_bicycle" depart="344.22" departLane="best" from="-31247388#0" to="-899096766"/>
    <trip id="bike110" type="bike_bicycle" depart="347.38" departLane="best" from="912905969" to="30072788"/>
    <trip id="bike111" type="bike_bicycle" depart="350.54" departLane="best" from="26599021" to="4952878#0"/>
    <trip id="bike112" type="bike_bicycle" depart="353.70" departLane="best" from="-172206106" to="30321483"/>
    <trip id="bike113" type="bike_bicycle" depart="356.86" departLane="best" departSpeed="max" from="245118338#0" to="694681348#3"/>
    <trip id="bike114" type="bike_bicycle" depart="360.01" departLane="best" from="-31247424#0" to="899097098#1"/>
    <trip id="bike116" type="bike_bicycle" depart="366.33" departLane="best" from="30323418#1" to="397523793"/>
    <trip id="bike117" type="bike_bicycle" depart="369.49" departLane="best" from="-5010631#1" to="-26987767#14"/>
    <trip id="bike119" type="bike_bicycle" depart="375.80" departLane="best" from="30323418#0" to="328764035#1"/>
    <trip id="bike120" type="bike_bicycle" depart="378.96" departLane="best" from="158722443#0" to="30156333"/>
    <trip id="bike121" type="bike_bicycle" depart="382.12" departLane="best" from="26153832#2" to="868062641"/>
    <trip id="bike122" type="bike_bicycle" depart="385.28" departLane="best" from="-4583400#0" to="455386120"/>
    <trip id="bike123" type="bike_bicycle" depart="388.44" departLane="best" from="-5010633#1" to="15243450#2"/>
    <trip id="bike124" type="bike_bicycle" depart="391.59" departLane="best" from="373792735#1" to="-923430541"/>
    <trip id="bike125" type="bike_bicycle" depart="394.75" departLane="best" from="-923881326" to="4997677#0"/>
    <trip id="bike126" type="bike_bicycle" depart="397.91" departLane="best" from="-180790114" to="208876058#0"/>
    <trip id="bike127" type="bike_bicycle" depart="401.07" departLane="best" from="977070592#2" to="9567011#5"/>
    <trip id="bike128" type="bike_bicycle" depart="404.23" departLane="best" from="-180790115" to="-4952856#4"/>
    <trip id="bike129" type="bike_bicycle" depart="407.38" departLane="best" from="-625737122#4" to="868062640"/>
    <trip id="bike131" type="bike_bicycle" depart="413.70" departLane="best" from="113300211#1" to="-316874895#1"/>
    <trip id="bike132" type="bike_bicycle" depart="416.86" departLane="best" from="577206483#1" to="44028859#0"/>
    <trip id="bike133" type="bike_bicycle" depart="420.02" departLane="best" from="316874895#0" to="937875351#0"/>
    <trip id="bike134" type="bike_bicycle" depart="423.18" departLane="best" from="35302221#0" to="-1024589781#0"/>
    <trip id="bike135" type="bike_bicycle" depart="426.33" departLane="best" from="533387419" to="-912905970#1"/>
    <trip id="bike136" type="bike_bicycle" depart="429.49" departLane="best" from="360818420#1" to="884375144"/>
    <trip id="bike137" type="bike_bicycle" depart="432.65" departLane="best" from="-27368746#0" to="-26987767#0"/>
    <trip id="bike138" type="bike_bicycle" depart="435.81" departLane="best" departSpeed="max" from="-25949689" to="27033538"/>
    <trip id="bike139" type="bike_bicycle" depart="438.97" departLane="best" from="-73227422" to="31247489"/>
    <trip id="bike140" type="bike_bicycle" depart="442.12" departLane="best" from="4583400#1" to="-4583445#3"/>
    <trip id="bike141" type="bike_bicycle" depart="445.28" departLane="best" from="339590033#1" to="-790323075#0"/>
    <trip id="bike142" type="bike_bicycle" depart="448.44" departLane="best" from="234978092#3" to="82235422"/>
    <trip id="bike143" type="bike_bicycle" depart="451.60" departLane="best" from="679596251#0" to="-250748306"/>
    <trip id="bike144" type="bike_bicycle" depart="454.76" departLane="best" from="170511029#0" to="-84192046#0"/>
    <trip id="bike145" type="bike_bicycle" depart="457.91" departLane="best" from="-10130497#1" to="4998710#0"/>
    <trip id="bike146" type="bike_bicycle" depart="461.07" departLane="best" from="33963524#0" to="-73227422"/>
    <trip id="bike148" type="bike_bicycle" depart="467.39" departLane="best" from="170511031#3" to="-1024589781#2"/>
    <trip id="bike149" type="bike_bicycle" depart="470.55" departLane="best" from="-180790126#0" to="8080525"/>
    <trip id="bike150" type="bike_bicycle" depart="473.70" departLane="best" from="82235423" to="26987767#2"/>
    <trip id="bike151" type="bike_bicycle" depart="476.86" departLane="best" from="57776718#2" to="30146816#2"/>
    <trip id="bike152" type="bike_bicycle" depart="480.02" departLane="best" from="-30323418#1" to="-271227047#0"/>
    <trip id="bike153" type="bike_bicycle" depart="483.18" departLane="best" from="-899096766" to="8089315#1"/>
    <trip id="bike154" type="bike_bicycle" depart="486.34" departLane="best" from="5010631#2" to="778380373"/>
    <trip id="bike156" type="bike_bicycle" depart="492.65" departLane="best" from="-5010658#1" to="-26386412#2"/>
    <trip id="bike157" type="bike_bicycle" depart="495.81" departLane="best" from="4998714#3" to="8080526#1"/>
    <trip id="bike158" type="bike_bicycle" depart="498.97" departLane="best" from="146984828#1" to="328764035#3"/>
    <trip id="bike159" type="bike_bicycle" depart="502.13" departLane="best" from="-31247388#0" to="84790901#0"/>
    <trip id="bike160" type="bike_bicycle" depart="505.28" departLane="best" from="790323075#1" to="9226587#0"/>
    <trip id="bike161" type="bike_bicycle" depart="508.44" departLane="best" from="5010657#0" to="8079193"/>
    <trip id="bike162" type="bike_bicycle" depart="511.60" departLane="best" from="-113296995#0" to="469205306#1"/>
    <trip id="bike163" type="bike_bicycle" depart="514.76" departLane="best" from="1010281285#2" to="84790902#0"/>
    <trip id="bike164" type="bike_bicycle" depart="517.92" departLane="best" from="5010636#0" to="790323075#0"/>
    <trip id="bike165" type="bike_bicycle" depart="521.07" departLane="best" from="5010657#0" to="-790323076"/>
    <trip id="bike166" type="bike_bicycle" depart="524.23" departLane="best" from="4998726" to="-26569832#1"/>
    <trip id="bike167" type="bike_bicycle" depart="527.39" departLane="best" from="8072689" to="73236998#0"/>
    <trip id="bike168" type="bike_bicycle" depart="530.55" departLane="best" departSpeed="max" from="-4952863" to="538022094#0"/>
    <trip id="bike170" type="bike_bicycle" depart="536.86" departLane="best" from="5010631#1" to="-5010631#2"/>
    <trip id="bike171" type="bike_bicycle" depart="540.02" departLane="best" from="-113145641#1" to="-442794477"/>
    <trip id="bike172" type="bike_bicycle" depart="543.18" departLane="best" from="-977070592#1" to="790323075#0"/>
    <trip id="bike173" type="bike_bicycle" depart="546.34" departLane="best" from="903441037#2" to="-84192046#1"/>
    <trip id="bike175" type="bike_bicycle" depart="552.65" departLane="best" from="926248665#1" to="26592556#1"/>
    <trip id="bike176" type="bike_bicycle" depart="555.81" departLane="best" from="8900171#1" to="-26987767#0"/>
    <trip id="bike177" type="bike_bicycle" depart="558.97" departLane="best" from="917836561#1" to="-373792735#0"/>
    <trip id="bike178" type="bike_bicycle" depart="562.13" departLane="best" from="899607573" to="-790323075#1"/>
    <trip id="bike179" type="bike_bicycle" depart="565.29" departLane="best" from="-25950273#0" to="173497767"/>
    <trip id="bike180" type="bike_bicycle" depart="568.44" departLane="best" from="4583564#1" to="-9567011#3"/>
    <trip id="bike181" type="bike_bicycle" depart="571.60" departLane="best" from="31247388#2" to="25978726"/>
    <trip id="bike182" type="bike_bicycle" depart="574.76" departLane="best" from="128846307#1" to="30062228#3"/>
    <trip id="bike183" type="bike_bicycle" depart="577.92" departLane="best" departSpeed="max" from="-548470156#1" to="441635695"/>
    <trip id="bike184" type="bike_bicycle" depart="581.08" departLane="best" from="-1010281285#2" to="84790898#1"/>
    <trip id="bike187" type="bike_bicycle" depart="590.55" departLane="best" from="113296985" to="-180819472#0"/>
    <trip id="bike188" type="bike_bicycle" depart="593.71" departLane="best" from="360818420#2" to="1024589781#1"/>
    <trip id="bike189" type="bike_bicycle" depart="596.87" departLane="best" from="-923430541" to="679596251#2"/>
    <trip id="bike190" type="bike_bicycle" depart="600.02" departLane="best" from="4583426#0" to="-923430541"/>
    <trip id="bike191" type="bike_bicycle" depart="603.18" departLane="best" from="-912905968#1" to="165778776"/>
    <trip id="bike192" type="bike_bicycle" depart="606.34" departLane="best" from="140050749#2" to="-899096765"/>
    <trip id="bike193" type="bike_bicycle" depart="609.50" departLane="best" from="-26987767#3" to="171923861"/>
    <trip id="bike195" type="bike_bicycle" depart="615.81" departLane="best" from="8107355" to="31725051#7"/>
    <trip id="bike196" type="bike_bicycle" depart="618.97" departLane="best" from="-868062640" to="26987767#5"/>
    <trip id="bike197" type="bike_bicycle" depart="622.13" departLane="best" from="-1010281285#0" to="-868062640"/>
    <trip id="bike198" type="bike_bicycle" depart="625.29" departLane="best" from="170511032#2" to="30072789#0"/>
    <trip id="bike199" type="bike_bicycle" depart="628.45" departLane="best" from="35302221#1" to="208876059#6"/>
    <trip id="bike200" type="bike_bicycle" depart="631.60" departLane="best" from="172855397#2" to="-4952861#1"/>
    <trip id="bike201" type="bike_bicycle" depart="634.76" departLane="best" from="208876059#3" to="8089390#0"/>
    <trip id="bike202" type="bike_bicycle" depart="637.92" departLane="best" from="5010631#2" to="-35302217#2"/>
    <trip id="bike203" type="bike_bicycle" depart="641.08" departLane="best" from="-190494839#0" to="26088764#2"/>
    <trip id="bike204" type="bike_bicycle" depart="644.24" departLane="best" departSpeed="max" from="337813350" to="1024592786#2"/>
    <trip id="bike205" type="bike_bicycle" depart="647.39" departLane="best" from="538022094#0" to="4997666#1"/>
    <trip id="bike206" type="bike_bicycle" depart="650.55" departLane="best" from="374535115#1" to="-4998714#5"/>
    <trip id="bike207" type="bike_bicycle" depart="653.71" departLane="best" from="-442794473#1" to="-113296995#1"/>
    <trip id="bike208" type="bike_bicycle" depart="656.87" departLane="best" from="-5010642" to="233474281#1"/>
    <trip id="bike210" type="bike_bicycle" depart="663.18" departLane="best" from="15243463#3" to="339590029#1"/>
    <trip id="bike211" type="bike_bicycle" depart="666.34" departLane="best" from="-441635693#2" to="42984985#2"/>
    <trip id="bike212" type="bike_bicycle" depart="669.50" departLane="best" from="237926037#1" to="-533387419"/>
    <trip id="bike213" type="bike_bicycle" depart="672.66" departLane="best" from="35302222#0" to="-10130642#2"/>
    <trip id="bike214" type="bike_bicycle" depart="675.82" departLane="best" departSpeed="max" from="4952871" to="4998709"/>
    <trip id="bike215" type="bike_bicycle" depart="678.97" departLane="best" departSpeed="max" from="-25949689" to="172206111"/>
    <trip id="bike216" type="bike_bicycle" depart="682.13" departLane="best" from="-35302221#0" to="899096768#2"/>
    <trip id="bike217" type="bike_bicycle" depart="685.29" departLane="best" from="25978726" to="-15243463#0"/>
    <trip id="bike218" type="bike_bicycle" depart="688.45" departLane="best" from="-5010658#1" to="679596251#2"/>
    <trip id="bike219" type="bike_bicycle" depart="691.61" departLane="best" from="180819472#2" to="5010636#0"/>
    <trip id="bike220" type="bike_bicycle" depart="694.76" departLane="best" from="361876876" to="937875351#2"/>
    <trip id="bike221" type="bike_bicycle" depart="697.92" departLane="best" from="30323418#1" to="898571039#0"/>
    <trip id="bike222" type="bike_bicycle" depart="701.08" departLane="best" from="8080532#1" to="31725051#2"/>
    <trip id="bike223" type="bike_bicycle" depart="704.24" departLane="best" from="4583400#4" to="25949687"/>
    <trip id="bike224" type="bike_bicycle" depart="707.40" departLane="best" from="571594915#1" to="26987767#5"/>
    <trip id="bike225" type="bike_bicycle" depart="710.56" departLane="best" from="8089315#3" to="4952861#2"/>
    <trip id="bike226" type="bike_bicycle" depart="713.71" departLane="best" from="208876059#5" to="-655674848#1"/>
    <trip id="bike227" type="bike_bicycle" depart="716.87" departLane="best" from="-5010645#3" to="349488863#0"/>
    <trip id="bike228" type="bike_bicycle" depart="720.03" departLane="best" from="4998695#1" to="26257159#1"/>
    <trip id="bike229" type="bike_bicycle" depart="723.19" departLane="best" from="328764038#1" to="-837637174#1"/>
    <trip id="bike230" type="bike_bicycle" depart="726.35" departLane="best" from="-180819472#2" to="-84789883#6"/>
    <trip id="bike233" type="bike_bicycle" depart="735.82" departLane="best" from="-4998714#3" to="42726878#1"/>
    <trip id="bike234" type="bike_bicycle" depart="738.98" departLane="best" from="441635695" to="-179638536#1"/>
    <trip id="bike235" type="bike_bicycle" depart="742.14" departLane="best" from="147396079#1" to="26987767#12"/>
    <trip id="bike236" type="bike_bicycle" depart="745.29" departLane="best" from="15243471#1" to="-4583564#2"/>
    <trip id="bike237" type="bike_bicycle" depart="748.45" departLane="best" from="164843380" to="8107355"/>
    <trip id="bike238" type="bike_bicycle" depart="751.61" departLane="best" from="30062300#1" to="42984985#1"/>
    <trip id="bike239" type="bike_bicycle" depart="754.77" departLane="best" from="694684031" to="4998698"/>
    <trip id="bike241" type="bike_bicycle" depart="761.08" departLane="best" from="1024973779#2" to="4997677#2"/>
    <trip id="bike242" type="bike_bicycle" depart="764.24" departLane="best" from="694684026" to="898571040#0"/>
    <trip id="bike243" type="bike_bicycle" depart="767.40" departLane="best" from="158722443#0" to="4952863"/>
    <trip id="bike244" type="bike_bicycle" depart="770.56" departLane="best" from="26987767#0" to="31247471#1"/>
    <trip id="bike245" type="bike_bicycle" depart="773.72" departLane="best" departSpeed="max" from="-4952862" to="-4998697#1"/>
    <trip id="bike246" type="bike_bicycle" depart="776.87" departLane="best" from="171949398" to="-128139906"/>
    <trip id="bike247" type="bike_bicycle" depart="780.03" departLane="best" from="10130642#1" to="406390894#1"/>
    <trip id="bike248" type="bike_bicycle" depart="783.19" departLane="best" from="140050751#1" to="-339590033#1"/>
    <trip id="bike249" type="bike_bicycle" depart="786.35" departLane="best" from="204792829#1" to="-271227047#0"/>
    <trip id="bike250" type="bike_bicycle" depart="789.51" departLane="best" from="318232960#1" to="-113300211#2"/>
    <trip id="bike251" type="bike_bicycle" depart="792.66" departLane="best" from="128846310#3" to="277877545"/>
    <trip id="bike252" type="bike_bicycle" depart="795.82" departLane="best" from="-113300211#1" to="349539113#2"/>
    <trip id="bike253" type="bike_bicycle" depart="798.98" departLane="best" from="-27608418#0" to="208876059#2"/>
    <trip id="bike254" type="bike_bicycle" depart="802.14" departLane="best" departSpeed="max" from="-147396081" to="128846310#3"/>
    <trip id="bike255" type="bike_bicycle" depart="805.30" departLane="best" from="-4583445#5" to="10130642#2"/>
    <trip id="bike256" type="bike_bicycle" depart="808.45" departLane="best" from="4997688#3" to="128846310#3"/>
    <trip id="bike257" type="bike_bicycle" depart="811.61" departLane="best" departSpeed="max" from="4952871" to="577787559#1"/>
    <trip id="bike259" type="bike_bicycle" depart="817.93" departLane="best" departSpeed="max" from="-1024973779#4" to="26791805"/>
    <trip id="bike260" type="bike_bicycle" depart="821.09" departLane="best" from="991807353" to="113145601"/>
    <trip id="bike261" type="bike_bicycle" depart="824.24" departLane="best" from="35302219#1" to="4998720#0"/>
    <trip id="bike262" type="bike_bicycle" depart="827.40" departLane="best" from="35302220#0" to="4997688#0"/>
    <trip id="bike263" type="bike_bicycle" depart="830.56" departLane="best" from="898567932#2" to="-4583400#2"/>
    <trip id="bike264" type="bike_bicycle" depart="833.72" departLane="best" departSpeed="max" from="-1024973779#4" to="-31247388#2"/>
    <trip id="bike265" type="bike_bicycle" depart="836.88" departLane="best" from="-26987767#2" to="374535115#1"/>
    <trip id="bike266" type="bike_bicycle" depart="840.03" departLane="best" from="27192095#0" to="-4997666#1"/>
    <trip id="bike267" type="bike_bicycle" depart="843.19" departLane="best" from="44028857" to="4998700"/>
    <trip id="bike268" type="bike_bicycle" depart="846.35" departLane="best" from="-328764040#2" to="31261119"/>
    <trip id="bike269" type="bike_bicycle" depart="849.51" departLane="best" from="4952861#2" to="-26791799"/>
    <trip id="bike270" type="bike_bicycle" depart="852.67" departLane="best" from="538022094#2" to="903441037#0"/>
    <trip id="bike271" type="bike_bicycle" depart="855.82" departLane="best" from="-25950273#0" to="-113300211#1"/>
    <trip id="bike273" type="bike_bicycle" depart="862.14" departLane="best" from="899096768#2" to="15243450#3"/>
    <trip id="bike276" type="bike_bicycle" depart="871.61" departLane="best" departSpeed="max" from="-25943350" to="4998713#0"/>
    <trip id="bike277" type="bike_bicycle" depart="874.77" departLane="best" from="694681348#1" to="31247388#2"/>
    <trip id="bike278" type="bike_bicycle" depart="877.93" departLane="best" from="-26987767#0" to="926248666"/>
    <trip id="bike279" type="bike_bicycle" depart="881.09" departLane="best" from="4998714#8" to="113145582#1"/>
    <trip id="bike280" type="bike_bicycle" depart="884.25" departLane="best" from="170511032#0" to="128846307#2"/>