<?xml version="1.0" encoding="UTF-8"?>

<!-- generated on 2022-03-05 00:09:49 by Eclipse SUMO duarouter Version 1.12.0
<configuration xmlns:xsi="http://www.w3.org/2001/XMLSchema-instance" xsi:noNamespaceSchemaLocation="http://sumo.dlr.de/xsd/duarouterConfiguration.xsd">

    <input>
        <net-file value="C:\Users\Marku\Sumo\2022-03-05-00-09-37\osm.net.xml"/>
        <route-files value="C:\Users\Marku\Sumo\2022-03-05-00-09-37\osm.pedestrian.trips.xml"/>
    </input>

    <output>
        <output-file value="C:\Users\Marku\Sumo\2022-03-05-00-09-37\osm.pedestrian.rou.xml"/>
        <alternatives-output value="C:\Users\Marku\Sumo\2022-03-05-00-09-37\osm.pedestrian.rou.alt.xml"/>
    </output>

    <time>
        <begin value="0"/>
        <end value="3600"/>
    </time>

    <report>
        <no-warnings value="true"/>
        <ignore-errors value="true"/>
        <no-step-log value="true"/>
    </report>

</configuration>
-->

<routes xmlns:xsi="http://www.w3.org/2001/XMLSchema-instance" xsi:noNamespaceSchemaLocation="http://sumo.dlr.de/xsd/routes_file.xsd">
    <vType id="ped_pedestrian" vClass="pedestrian"/>
    <person id="ped0" type="ped_pedestrian" depart="0.00">
        <walk edges="406956674 406956684#0 406957972 -777241622#0 777241622#2 124875757 124875756#1 124875756#0 172206106 -121805562#3 -406390904 -406390906#1 -778380374#0 -113145639 28007162#2 -170511029#1 -170511032#0 -170511032#1 -170511032#2 -977070592#0 164843380 164843382#1 236748203#7 236748203#6 236748203#5 236748203#4 236748203#3 236748203#2 -128846309#3 -128846309#2 -128846309#1"/>
    </person>
    <person id="ped1" type="ped_pedestrian" depart="1.52">
        <walk edges="128846309#0 -128846307#0 -128846307#1 -128846307#2 -128846307#3 -233474281#0 977070592#1 -977070592#0 -9567011#5 -9567011#4 -9567011#3"/>
    </person>
    <person id="ped2" type="ped_pedestrian" depart="3.03">
        <walk edges="463420674#1 463420674#0 48834938#1 937875350 236748200 238045923#0 238045923#1 207905289#1 207905289#2 353076270 57779368#1 57779368#0 407661874#1 407673209 407673210 407673208 407677452#0 407677452#1 407677452#2"/>
    </person>
    <person id="ped3" type="ped_pedestrian" depart="4.55">
        <walk edges="8084084#1 8084084#2 30322084#0 30322084#1 -25950172#1 4952856#4 4952856#3 4952856#0 -73227422 -364911324 342760500 694684029 -8058876 -270461283"/>
    </person>
    <person id="ped4" type="ped_pedestrian" depart="6.07">
        <walk edges="26420693#0 29143417#2 1032957286#4 26420693#2 26420693#3 26420693#4 -26420698#0 -26420698#2 -128846310#2 128846310#0 -963458951#0 -898567932#1 -898567932#2 -328764035#3 -1024973779#3 828476230#2 828476230#3 828476231#0 828476231#1 828476231#2 828476231#3 237931024#3 237931024#2 147396079#1 179638536#0 179638536#1 179638536#2 233472404#4 233472404#3 233472404#2 233472404#1 233472404#0 -140050742#1"/>
    </person>
    <person id="ped5" type="ped_pedestrian" depart="7.58">
        <walk edges="-93629726#1 93629726#2 -790323076 -10130488#1 5010654#0 10130642#2 -26987767#8 -26987767#9 131018335#1 407661814 407661825 407661872#0 353076272#1 57779706#0 407661829 407661812 407661813 57779705#1 57779703#0 57779703#1 407673214#1 407673212 407673211 407695773#1 828476282#1 828476282#0 194342534#2 -30979977#1 242050037 48834939#1 30156334#1"/>
    </person>
    <person id="ped6" type="ped_pedestrian" depart="9.10">
        <walk edges="-128846309#4 -128846309#3 -128846309#2 -128846309#1 -128846309#0 194342534#0 194342534#1 828476282#0 828476282#1 407695773#1 407673211 407673212 407673214#1 57779703#1 57779703#0 57779705#1 407661813 407661812 407661829 57779706#0 353076272#1 407661872#0 407661825 407661814 131018335#1 -26987767#9 -26987767#8 10130642#1 35302221#2 -35302221#1 -84789883#7 -84789883#6 -84789883#3 -84789883#2"/>
    </person>
    <person id="ped7" type="ped_pedestrian" depart="10.62">
        <walk edges="407661813 57779705#1 245072761#1 245072761#0 236750648 170553624#1 170553624#0 -26987767#13 236750647#6 463420673#2 463420673#1 463420673#0 29067256#1 -30323418#0 -8900171#5 33963525 33963524#1"/>
    </person>
    <person id="ped9" type="ped_pedestrian" depart="13.65">
        <walk edges="5010634#0 29052198#1 29052198#0 5010636#1 5010636#0 391187121 207905293#1 26644790#5 57778368#1 -5010631#2 26644830#0 26644830#1 937875347#0 339590808#1 339590808#3 339590808#4 339590808#5 339590808#6 478867593#2 478867593#0 207905289#5 917836561#1 406930203#14 406930203#13 406930203#11 369979755#1 491136378#3 837637172#3 -1024592786#4 -1024592786#2 -1024592786#1"/>
    </person>
    <person id="ped10" type="ped_pedestrian" depart="15.17">
        <walk edges="4998733 -170511032#2 -977070592#0 164843380 164843382#1 236748203#7 236748203#6 236748203#5 236748203#4 236748203#3 236748203#2 236748203#1 236748203#0 149641244#1 625248194#1 625248194#0 26420693#2 1032957285#4 1032957285#3 1032957285#2 1032957285#1 1032957285#0 1032957284#1 -26569905#1 128139907#1 128139907#0 263672180#2 263672180#0 408576594 26570034#7 26570034#8 26570034#9 26570034#0 936861421#0 408557304 408557311#1 408557306"/>
    </person>
    <person id="ped11" type="ped_pedestrian" depart="16.68">
        <walk edges="201905735 26591680#1 233472404#0 -140050742#1 -25527482#0 -5010634#1"/>
    </person>
    <person id="ped12" type="ped_pedestrian" depart="18.20">
        <walk edges="867523028#8 25950117#0 4998711#2 4998711#1 4998711#0 8043984#1 30322084#0 30322084#1 -25950172#1 4952856#4 4952856#3 867513161#1 867513160#4 4998721#0 868062642#2 342007260 342007259#0 342007248#0 342007248#1 185548137"/>
    </person>
    <person id="ped13" type="ped_pedestrian" depart="19.72">
        <walk edges="-28151969 -4952861#3 -4952861#2 4952861#0 -4952856#1 -4952856#3 -4952856#4 25950172#1 30322084#1 30322084#0 8043984#1 4998711#0 4998711#1 4998711#2 4998711#3 4998711#4 4998711#5 27368746#0 4998710#0 4998710#1 26153832#0 26153832#1 26153832#2 -571594915#0 -571594915#1 -170511029#0 -170511029#1 -170511032#0 -170511032#1 -170511032#2 -977070592#0 164843380 164843382#1 236748203#7 236748203#6 236748203#5 236748203#4 236748203#3 236748203#2 236748203#1 236748203#0 149641244#0 29143417#8 29143417#9 -29143417#10"/>
    </person>
    <person id="ped14" type="ped_pedestrian" depart="21.23">
        <walk edges="57779703#0 57779705#1 407661813 407661812 407661829 57779706#0 353076272#2 407661865#0 407661809 407661850#1 170553623 207905289#7 207905289#6 917836561#1 406930203#14 406930203#13 406930203#11"/>
    </person>
    <person id="ped15" type="ped_pedestrian" depart="22.75">
        <walk edges="5010631#2 26644830#0 26644830#1 937875347#0 339590808#1 339590808#3 339590808#4 339590808#5 339590808#6 478867593#2 478867593#0 207905289#5 917836561#1 -442794473#0 -884375149 497713213 463419962"/>
    </person>
    <person id="ped16" type="ped_pedestrian" depart="24.27">
        <walk edges="339590032#1 937875346#0 937875346#1 828476239#0 828476239#2 -339590033#1 -171949398 148093430 -8083974#0 -8083974#1 -172311092#0 84790898#2 84790901#0 84790903 84790900#0 -1024592786#8 835564073#3 496920315#3 496920315#1 837637172#3 -1024592786#4 912905967#3 912905967#4"/>
    </person>
    <person id="ped17" type="ped_pedestrian" depart="25.78">
        <walk edges="236750647#3 236750647#4 236750647#5 236750647#6 463420673#2 463420673#1 463420673#0 29067256#1 -30323418#0 -8900171#5 -8900171#4 -8900171#3 -8900171#2 -8900171#1 -8900171#0 -93629726#2 -93629726#1 -5010645#3 -5010658#2 -5010658#1 -5010658#0 26088764#0 26088764#1 26088764#2 -8058876 694684030 342760499"/>
    </person>
    <person id="ped18" type="ped_pedestrian" depart="27.30">
        <walk edges="503851706#5 503851705 503846495#1 503846495#2 625248194#1 149641244#1 236748203#0 236748203#1 236748203#2 236748203#3 236748203#4 236748203#5 236748203#6 236748203#7 164843382#1 164843380 -977070592#0 -170511032#2 -170511032#1 -170511032#0 -30323418#1 -30323418#0 8900171#5 8900171#4 8900171#3 8900171#2 8900171#1 8900171#0 93629726#2 93629726#1 5010645#3 5010645#2 5010645#1 -316874895#0 -316874895#1 872355896#2 406957971#2 872355895#2 872355895#0 392346085#0 406954676#2 406947989#1 408544769#0 408544768 406947971 406947983 406947982 406947993"/>
    </person>
    <person id="ped20" type="ped_pedestrian" depart="30.33">
        <walk edges="408572942 408572941 128139907#1 -26569905#1 1032957284#1 1032957285#0 1032957285#1 1032957285#2 1032957285#3 1032957285#4 26420693#2 26420693#3 26420693#4 -26420698#0 -26420698#2 -128846310#2 128846310#0 -963458951#0 -898567932#1 -898567932#2 -328764035#3 -1024973779#3 828476230#2 828476230#3 828476231#0 828476231#1 828476231#2 -926248666 899096765 328764038#1 828476235#2 -29052198#1 84192046#3 -173497767 -173497757"/>
    </person>
    <person id="ped21" type="ped_pedestrian" depart="31.85">
        <walk edges="1008707157 373637430#1 373637433 1008707155 184598606#0 571594915#1 -170511029#0 -170511029#1 -170511032#0 -170511032#1 -170511032#2 -977070592#0 164843380 164843382#1 236748203#7 236748203#6 236748203#5 236748203#4 236748203#3 236748203#2 236748203#1 236748203#0 149641244#1 149641244#2"/>
    </person>
    <person id="ped22" type="ped_pedestrian" depart="33.37">
        <walk edges="-26987767#0 474851985 474851987#0 -316874895#2 -316874895#1 -316874895#0 30062300#1 180883196 1024589781#3 1024589781#2"/>
    </person>
    <person id="ped23" type="ped_pedestrian" depart="34.88">
        <walk edges="-29143417#9 503846495#3 503846495#2 503846495#1 503846495#0 503851706#3 503851704#1 503851704#0 149641244#4 149641244#5 474366380 128846309#5"/>
    </person>
    <person id="ped24" type="ped_pedestrian" depart="36.40">
        <walk edges="406954674#0 406954676#1 406954676#2 392346085#0 872355895#0 872355895#2 406957971#2 872355896#2 -316874895#2 -43980603 -5010642 -113145582#0 -113145582#1 -113145582#2 -26987767#2 -26987767#3 -26987767#4 -26987767#5 -26987767#6 -26987767#7 -26987767#8 -26987767#9 131018335#1 407661814 407661825 407661872#0 353076272#1 57779706#0 407661829 407661812 407661813 57779705#1 245072761#2 407666593#1 407666591 407666592#0 236748206#1 937875349 48834938#0 48834938#1 937875350 236748200 238045923#0 238045923#1 207905289#0 48834944#3 48834944#2 48834944#1 48834944#0 207905291#0 207905291#1 164842315#2 207905297#5 207905297#4 207905297#3 207905297#2 207905297#1 207905297#0 242050035 828476231#2 828476231#3 237931024#3 237931024#2 147396079#1 179638536#0 179638536#1 179638536#2 233472404#4 233472404#3"/>
    </person>
    <person id="ped25" type="ped_pedestrian" depart="37.92">
        <walk edges="236748200 238045923#0 238045923#1 207905289#0 48834944#3 48834944#2 48834944#1 48834944#0 207905291#0 207905291#1 164842315#2 207905297#5 1024973779#0 -1024973779#1 1024973779#2 -1024973779#3 -328764035#3 -898567932#2 -898567932#1"/>
    </person>
    <person id="ped26" type="ped_pedestrian" depart="39.43">
        <walk edges="126041829#0 126041825#3 209588665#2 128139912#0 -26569905#2 -26569905#1 1032957284#1 1032957285#0 1032957285#1 1032957285#2 1032957285#3 1032957285#4 26420693#2 625248194#0 625248194#1 149641244#1 236748203#0 236748203#1 236748203#2 236748203#3 236748203#4 236748203#5 236748203#6 236748203#7 164843382#1 164843380 -977070592#0 -170511032#2 -170511032#1 -170511032#0 -170511029#1 -170511029#0 -571594915#1 -571594915#0 26153832#2 26153832#1 26153832#0 4998710#1 4998710#0 27368746#0 4998711#5 4998711#4 4998711#3 4998711#2 4998711#1 4998711#0 8043984#1 30322084#0 30322084#1 -4998726 868062640 15243471#1 -15243471#2 -625737122#3 15243463#3 867513157#2 867513157#3"/>
    </person>
    <person id="ped27" type="ped_pedestrian" depart="40.95">
        <walk edges="407661809 407661865#0 353076272#2 353076272#1 407661872#0 407661825 407661814 131018335#1 -26987767#9 -26987767#8 -26987767#7 -26987767#6 -26987767#5 -26987767#4 -26987767#3 -26987767#2 -113145582#2 -113145582#1 -113145582#0 -5010642 -43980603 -316874895#2 872355896#2 406957971#2 872355895#2 872355895#0 392346085#0 406954676#2 406947989#1 406947989#0 406947967"/>
    </person>
    <person id="ped28" type="ped_pedestrian" depart="42.47">
        <walk edges="-625737122#4 8072684#3 8072684#2 8072684#1 -4998726 30322084#1 30322084#0 8043984#1 4998711#0 4998711#1 4998711#2 4998711#3 4998711#4 4998711#5 27368746#0 4998710#0 4998710#1 26153832#0 26153832#1 26153832#2 -571594915#0 -571594915#1 -170511029#0 -170511029#1 30323418#1 29067256#1 463420673#0 463420673#1 463420673#2 236750647#6 -26987767#13 170553624#0 170553624#1 236750648 245072761#0 245072761#1 407681810 407681799 245072754#1 407677452#0 407677452#1 407691190 407691196 407691250#0 463418025"/>
    </person>
    <person id="ped30" type="ped_pedestrian" depart="45.50">
        <walk edges="937875352 194342534#2 828476282#0 828476282#1 407695773#1 407673211 407673212 407673214#1 57779703#1 57779703#0 57779705#1 407661813 407661812 407661829 57779706#0 353076272#1 407661872#0 407661825 407661814 131018335#1 -26987767#9 -26987767#8 10130642#2 5010654#0 -10130488#1 -790323076 93629726#2 -93629726#1 -5010645#3 -5010645#2 -5010645#1 30062300#1 777241622#2 -777241622#0 406957972 406956684#0 406956676"/>
    </person>
    <person id="ped31" type="ped_pedestrian" depart="47.02">
        <walk edges="353076269#0 236748202 57779703#2 57779703#1 245072758#1 245072758#0 407681799 245072754#1 407677452#0 407677452#1 407677452#2 407691202"/>
    </person>
    <person id="ped32" type="ped_pedestrian" depart="48.53">
        <walk edges="559327256#2 559327256#0 -817886024 406957971#2 872355896#2 -316874895#1 -316874895#0 30062300#1 -124875757 -124875749 72101115#0 72101115#1 72101115#2 -4583428 270461283 8058876 694684029 342760500 -364911324 -73227422 4952856#0 4952856#3 4952856#4"/>
    </person>
    <person id="ped33" type="ped_pedestrian" depart="50.05">
        <walk edges="1010281285#1 -1010281285#0 233474280 -26987767#14 170553624#0 170553624#1 236750648 245072761#0 245072761#1 245072761#2 407666593#1 407666591 407666592#0 236748206#1 937875349 48834938#0 48834938#1 937875350 236748200 238045923#0 238045923#1 238045923#2 238045923#3 937875347#1 937875347#0 26644830#1 26644830#0 -5010631#2 57778368#1 26644790#5 207905293#1 391187121 5010636#0 5010636#1 29052198#0 29052198#1 5010634#0 173497762 173497766 242834249 -140050749#1"/>
    </person>
    <person id="ped34" type="ped_pedestrian" depart="51.57">
        <walk edges="173497772#0 -173497772#1 -173497772#2 -173497757 -173497767 84192046#3 -29052198#1 828476235#2 328764038#1 899096765 -926248666 828476231#2 828476231#1 828476231#0 828476230#3 828476230#2 -1024973779#3 -328764035#3 -898567932#2 -898567932#1 -963458951#0 128846310#0 -128846310#2 -26420698#2 -26420698#0 26420693#4 26420693#3 26420693#2 1032957285#4 1032957285#3 1032957285#2 1032957285#1 1032957285#0 1032957284#1 -26569905#1 -26569905#2 128139912#0 209588665#2 209588665#0 126041829#2"/>
    </person>
    <person id="ped35" type="ped_pedestrian" depart="53.08">
        <walk edges="-899607575 30156334#1 48834939#1 242050037 -30979977#1 194342534#2 828476282#0 828476282#1 407695773#1 407673211 407673212 407673214#1 57779703#1 57779703#0 245072761#1 245072761#0 236750648 170553624#1 170553624#0 -26987767#13 236750647#6 463420673#2 463420673#1 463420673#0 29067256#1 30323418#1 -170511029#1 -170511029#0 -571594915#1 -571594915#0 26153832#2 26153832#1 26153832#0 4998710#1 4998710#0 27368746#0 4998711#5 4998711#4 4998711#3 4998711#2 4998711#1 4998711#0 8043984#1 30322084#0 30322084#1 -25950172#1 4952856#4 4952856#3 867513161#1 867513160#4"/>
    </person>
    <person id="ped36" type="ped_pedestrian" depart="54.60">
        <walk edges="777241601#2 777241600 236750649#0 236750649#1 837637175#2 170553610#1 548471071#3 406930203#1 406930203#2 406930203#3 -1024592786#8 84790900#0 84790903 84790901#0 84790898#2 84790898#1 478867593#2 339590808#6 339590808#5 339590808#4 339590808#3 339590808#1 937875347#0 26644830#1 26644830#0 -5010631#2 57778368#1 26644790#5 207905293#1 391187121 5010636#0 5010636#1 29052198#0 29052198#1 5010634#0 173497762 173497766"/>
    </person>
    <person id="ped37" type="ped_pedestrian" depart="56.12">
        <walk edges="407661829 407661812 407661813 57779705#1 407681810 407681799 245072754#1"/>
    </person>
    <person id="ped38" type="ped_pedestrian" depart="57.63">
        <walk edges="835565345#1 -923881326 777241600 777241601#2 194550371#1 777241602#1 -26987767#0 -26987767#1 -26987767#2 -26987767#3 -26987767#4 -26987767#5 -26987767#6 -26987767#7 -26987767#8 -26987767#9 131018335#1 407661814 407661825 407661872#0 353076272#1 57779706#0 407661829 407661812 407661813 57779705#1 57779703#0 57779703#1 407673214#1 407673212 407673211 407695773#1 828476282#1 828476282#0 194342534#1 194342534#0 -442794489 30108953#0 30108953#1 30108953#2 27297633#4"/>
    </person>
    <person id="ped39" type="ped_pedestrian" depart="59.15">
        <walk edges="126041825#2 126041825#1 126041825#0 128139912#2 128139912#1 128139912#0 -26569905#2 -26569905#1 1032957284#1 1032957285#0 1032957285#1 1032957285#2"/>
    </person>
    <person id="ped40" type="ped_pedestrian" depart="60.67">
        <walk edges="353079497#1 353079497#2 986444652#0 986444652#1 172206106 124875756#0"/>
    </person>
    <person id="ped42" type="ped_pedestrian" depart="63.70">
        <walk edges="245072761#2 57779705#1 407661813 407661812 407661829 57779706#0 353076272#1 407661872#0 407661825 407661814 131018335#1 -26987767#9 -26987767#8 10130642#2 5010654#0 -10130488#1 -790323076 -93629726#2"/>
    </person>
    <person id="ped43" type="ped_pedestrian" depart="65.22">
        <walk edges="977070592#1 977070592#0 170511032#2 170511032#1 -170511032#0 -170511029#1 -170511029#0 -571594915#1 -571594915#0 26153832#2 26153832#1 26153832#0 4998710#1 4998710#0 27368746#0 4998711#5 4998711#4 4998711#3 4998711#2 4998711#1 4998711#0 8043984#1 30322084#0 30322084#1 -4998726 -868062640 -15243469 307625165 307625166"/>
    </person>
    <person id="ped44" type="ped_pedestrian" depart="66.73">
        <walk edges="-27608418#2 -27608418#1 -27608418#0 8089390#1 -29052198#1 84192046#3 -173497767"/>
    </person>
    <person id="ped45" type="ped_pedestrian" depart="68.25">
        <walk edges="-31247471#0 5010645#1 -316874895#0 -316874895#1 872355896#2 406957971#2 872355895#2 872355895#0 392346085#0 406954676#2 406947989#1 408544769#0 408544768 406947971 406948007#1 406951826 406951828"/>
    </person>
    <person id="ped46" type="ped_pedestrian" depart="69.77">
        <walk edges="4998691#2 4998691#1 4998691#0 977070592#0 164843380 164843382#1 236748203#7 236748203#6 236748203#5 236748203#4 236748203#3 236748203#2 236748203#1 236748203#0 149641244#1 625248194#1 625248194#0 26420693#2 1032957286#4 29143417#2 26420693#0"/>
    </person>
    <person id="ped47" type="ped_pedestrian" depart="71.28">
        <walk edges="-25527470#1 898564143 5010633#2 5010633#1 391187121 207905293#1 26644790#5 57778368#1 -5010631#2 26644830#0 26644830#1 937875347#0 339590808#1 339590808#3 339590808#4 339590808#5 339590808#6 478867593#2 84790898#1 84790898#2 84790901#0 84790903 84790900#0 -1024592786#8 406930203#3 406930203#2 406930203#1 548471071#3 170553610#1 837637175#2 236750649#1 236750649#0"/>
    </person>
    <person id="ped48" type="ped_pedestrian" depart="72.80">
        <walk edges="961343908#0 496920316#6 496920316#5 -1024592786#8 84790900#0 84790903 84790901#0 84790898#2 84790898#1 478867593#2 339590808#6 339590808#5 339590808#4 339590808#3 339590808#1 937875347#0 26644830#1 26644830#0 -5010631#2 57778368#1 26644790#5 207905293#1 391187121 -5010636#0 -5010636#1 328764038#0 328764038#1"/>
    </person>
    <person id="ped49" type="ped_pedestrian" depart="74.32">
        <walk edges="912905967#1 912905967#0 496920315#0 496920315#1 496920315#3 835564073#3 -1024592786#8 84790900#0 84790903 84790901#0 84790898#2 -172311092#0 -8083974#1 -8083974#0 -271227046#2 655674852#0"/>
    </person>
    <person id="ped50" type="ped_pedestrian" depart="75.83">
        <walk edges="-1024973779#3 -328764035#3 -898567932#2 242050034#0 242050034#1 242050034#2 899096769#1 899096769#2 48834939#1 242050037 -30979977#1 194342534#2 828476282#0 828476282#1 407695773#1 407673211 407673212 407673214#1 57779703#1 57779703#0 57779705#1 407661813 407661812 407661829 57779706#0 353076272#1 407661872#0 407661825 407661814 131018335#1 -26987767#9 -26987767#8 10130642#2 5010654#0 -10130488#1 -790323076 93629726#2 -93629726#1 -5010645#3 -5010658#2 -5010658#1 -5010658#0 26088764#0 -26088764#1 -26088764#2 270461283 44024903#0"/>
    </person>
    <person id="ped51" type="ped_pedestrian" depart="77.35">
        <walk edges="407691168 407691231#0 236750651#0 407691252#1 353076271 172855390 497713213 -884375149 -442794473#0 -172311092#1 -172311092#0 -8083974#1 -8083974#0 148093430 -171949398 339590033#1"/>
    </person>
    <person id="ped52" type="ped_pedestrian" depart="78.87">
        <walk edges="126041829#0 126041825#3 209588665#2 128139912#0 -26569905#2 -26569905#1 1032957284#1 1032957285#0 1032957285#1 1032957285#2 1032957285#3 1032957285#4 26420693#2 625248194#0 625248194#1 149641244#1 236748203#0 236748203#1 236748203#2 236748203#3 236748203#4 236748203#5 236748203#6 236748203#7 164843382#1 164843380 -977070592#0 -170511032#2 -170511032#1 -170511032#0 -170511029#1 28007162#2 -113145639 -778380374#0 -406390906#1 -406390904 -121805562#3 172206106 124875756#0 124875756#1 124875757 777241622#2 -777241622#0 406957972 406956684#0 406956676 406956673 406956678"/>
    </person>
    <person id="ped53" type="ped_pedestrian" depart="80.38">
        <walk edges="-31261119 82235423 5010658#0 5010658#1 5010658#2 -5010645#3 -93629726#1 93629726#2 -790323076 -10130488#1 5010654#0 10130642#2 -26987767#8 -26987767#9 131018335#1 407661814 407661825 407661872#0 353076272#1 57779706#0 407661829 407661812 407661813 57779705#1 245072761#2 407666593#1 407666591 407666592#0 236748206#1 937875349 48834938#0 48834938#1 937875350 236748200 238045923#0 238045923#1 207905289#0 48834944#3 48834944#2 48834944#1 48834944#0 207905291#0 207905291#1 164842315#2 207905297#5 207905297#4 207905297#3 207905297#2 207905297#1 207905297#0 242050035 828476231#2 828476231#3 237931024#3 237931024#2 237931024#1 26593077#2"/>
    </person>
    <person id="ped54" type="ped_pedestrian" depart="81.90">
        <walk edges="26987767#7 -26987767#6 -790323075#0 -10130488#1 -790323076 -10130730 -912905968#1 406390906#0 778380374#0 778380374#1 426750224 373637428 373637431#1 184553838#1 184553838#2 373637438 26153832#1 26153832#0 4998710#1 4998710#0 27368746#0 4998711#5 867523028#1 867523028#2"/>
    </person>
    <person id="ped55" type="ped_pedestrian" depart="83.42">
        <walk edges="777241600 777241601#2 194550371#1 777241602#1 474851985 474851987#0 25943354 -31247471#0 -31247471#1 124875757"/>
    </person>
    <person id="ped56" type="ped_pedestrian" depart="84.93">
        <walk edges="30108985#6 30108985#5 503846494 503846495#4 29143417#8 149641244#0 236748203#0 236748203#1 236748203#2 236748203#3 236748203#4 236748203#5 236748203#6 236748203#7 164843382#1 164843380 -977070592#0 -170511032#2 -170511032#1 -170511032#0 -170511029#1 28007162#2 -113145639 -778380374#0"/>
    </person>
    <person id="ped57" type="ped_pedestrian" depart="86.45">
        <walk edges="835565342#1 835565343#1 -26987767#3 -26987767#4 -26987767#5 790323075#0 10130488#0 -790323076 -10130730 -912905968#1 406390906#0 -778380374#0 923430542 468761498#0 468761498#1 718781525 718781524 718781523"/>
    </person>
    <person id="ped58" type="ped_pedestrian" depart="87.97">
        <walk edges="164843380 -977070592#0 -170511032#2 -170511032#1 -170511032#0 -170511029#1 28007162#2 -113145639 -778380374#0 -406390906#1 -406390904 -121805562#3 172206106 124875756#0 124875756#1 124875757 777241622#2 -777241622#0 406957972 406956684#0 406956676 406956673"/>
    </person>
    <person id="ped59" type="ped_pedestrian" depart="89.48">
        <walk edges="406947967 406947989#0 406947989#1 406954676#2 392346085#0 872355895#0 872355895#2 406957971#2 872355896#2 -316874895#2 -43980603 -5010642 -113145582#0 -113145582#1 -113145582#2 -26987767#2 835565343#1 835565342#1 835565341#2 475011650#2 475011650#1 475011650#0 961343908#0 496920316#6 496920316#5 -1024592786#8 84790900#0 84790903 84790901#0 84790898#2 84790898#1 478867593#2 339590808#6 339590808#5 339590808#4 339590808#3 339590808#1 937875347#0 26644830#1 26644830#0 -5010631#2 -5010631#3"/>
    </person>
    <person id="ped60" type="ped_pedestrian" depart="91.00">
        <walk edges="48834943#1 26644701 26644700 57778368#1 -5010631#2 26644830#0 26644830#1 937875347#0 937875347#1 339590808#12 339590808#11"/>
    </person>
    <person id="ped61" type="ped_pedestrian" depart="92.52">
        <walk edges="4952863 4952878#1 73227422 -364911324 342760500 694684029 8058876 26088764#2 26088764#1 26088764#0 -5010658#0 -5010658#1 -5010658#2 -5010645#3 -93629726#1 93629726#2 -790323076 -10130488#1 5010654#0 10130642#2 -26987767#8 -26987767#9 131018335#1 407661814 407661825 407661872#0 353076272#1 57779706#0 407661829 407661812 407661813 57779705#1 245072761#2 407666593#1 407666591 407666592#0 236748206#1 937875349 48834938#0 48834938#1 937875350 236748200 238045923#0 238045923#1 238045923#2 238045923#3 937875347#1 937875347#0 26644830#1 26644830#0 -5010631#2 -5010631#3 -8089369 328764040#1"/>
    </person>
    <person id="ped62" type="ped_pedestrian" depart="94.03">
        <walk edges="-1010281285#1 -1010281285#0 233474280 -26987767#14 -26987767#13 236750647#6 463420673#2 463420673#1 463420673#0 29067256#1 -30323418#0 -8900171#5 33963525 33963524#1 37862596 -180819472#0 -180819472#1 180819472#2"/>
    </person>
    <person id="ped63" type="ped_pedestrian" depart="95.55">
        <walk edges="-124875756#0 -5010658#2 -5010658#3 -113145582#0 -113145582#1 -113145582#2 -26987767#2 835565343#1 835565342#1 835565341#2 475011650#2 475011650#1 475011650#0 961343908#0 496920316#6 496920316#5 -1024592786#8 84790900#0 84790903 84790901#0 84790898#2 -172311092#0 -8083974#1 84790902#0 84790899#6"/>
    </person>
    <person id="ped65" type="ped_pedestrian" depart="98.58">
        <walk edges="172206106 -121805562#3 -406390904 -406390906#1 -778380374#0 -113145639 28007162#2 -170511029#1 -170511032#0 -170511032#1 -170511032#2 -977070592#0 164843380 164843382#1 236748203#7 236748203#6 236748203#5 236748203#4 236748203#3 236748203#2 236748203#1 236748203#0 149641244#1 625248194#1 625248194#0 26420693#2 1032957285#4 1032957285#3 1032957285#2 1032957285#1 1032957285#0 1032957284#1 -26569905#1 128139907#1 128139907#0 263672180#2 263672180#0 408576594 26570034#7 26570034#8 26570034#9 26570034#0 -22923803"/>
    </person>
    <person id="ped66" type="ped_pedestrian" depart="100.10">
        <walk edges="777241622#2 124875757 -124875749 72101115#0 72101115#1 72101115#2 -4583428 270461283 8058876 694684029 342760500 -364911324 -73227422 4952856#0 867513161#1 867513160#4 4998721#0 868062642#2 360819654 360819655 867516063#1"/>
    </person>
    <person id="ped67" type="ped_pedestrian" depart="101.62">
        <walk edges="-26987767#7 -26987767#6 -790323075#0 -10130488#1 -790323076 93629726#2 -93629726#1 -5010645#3 -5010645#2 -5010645#1 30062300#1 777241622#2 -777241622#0 30062228#4"/>
    </person>
    <person id="ped68" type="ped_pedestrian" depart="103.13">
        <walk edges="-25950853#0 4998710#1 26153832#0 26153832#1 26153832#2 -571594915#0 -571594915#1 -170511029#0 -170511029#1 30323418#1 29067256#1 463420673#0 463420673#1 463420673#2 236750647#6 -26987767#12 236750647#2 236750647#1 236750647#0 48834938#0 48834938#1 937875350 236748200 238045923#0 238045923#1 207905289#0 48834944#3 48834944#2 48834944#1 48834944#0 207905291#0 207905291#1 164842315#2 207905297#5 48834939#6"/>
    </person>
    <person id="ped69" type="ped_pedestrian" depart="104.65">
        <walk edges="48834945#0 207905294#1 27541607#0 207905297#3 207905297#4 207905297#5 164842315#2 207905291#1 207905291#0 48834944#0 48834944#1 48834944#2 48834944#3 207905289#0 238045923#1 238045923#0 236748200 937875350 48834938#1 48834938#0 937875349 236748206#1 407666592#0 407666591 407666593#1 245072761#2 57779705#1 407661813 407661812 407661829 57779706#0 353076272#1 407661872#0 407661825 407661814 131018335#1 -26987767#9 -26987767#8 10130642#2 5010654#0 -10130488#1 -790323076 93629726#2 -93629726#1 -5010645#3 -5010658#2 -5010658#1 -5010658#0 26088764#0 -26088764#1 -26088764#2 -270461283 -44024903#1"/>
    </person>
    <person id="ped70" type="ped_pedestrian" depart="106.17">
        <walk edges="29067238 113150039#1 113150039#0 29067229#1 29067246 29067252 29067256#0 29067256#1 30323418#1 -170511029#1 -170511029#0 -571594915#1 -571594915#0 26153832#2 26153832#1 26153832#0 4998710#1 4998710#0 27368746#0 4998711#5 4998711#4 4998711#3 4998711#2 4998711#1 4998711#0 8043984#1 30322084#0 30322084#1 -25950172#1 4952856#4 4952856#3 867513161#1 867513160#4 4998721#0 868062642#2 342007260"/>
    </person>
    <person id="ped71" type="ped_pedestrian" depart="107.68">
        <walk edges="126041825#2 126041825#1 126041825#0 128139912#2 128139912#1 128139912#0 -26569905#2 -26569905#1 1032957284#1 1032957285#0 1032957285#1 1032957285#2 1032957285#3 1032957285#4 26420693#2 625248194#0 625248194#1 149641244#1 236748203#0 236748203#1 236748203#2 236748203#3 236748203#4 236748203#5 236748203#6 236748203#7 164843382#1 164843380 -977070592#0 -170511032#2 -170511032#1 -170511032#0 -170511029#1 28007162#2 -113145639 -778380374#0 -406390906#1 -406390904 -121805562#3 172206106 124875756#0 124875756#1 124875749 72101115#0"/>
    </person>
    <person id="ped72" type="ped_pedestrian" depart="109.20">