<?xml version="1.0" encoding="UTF-8"?>

<!-- generated on 2022-03-05 00:09:51 by Eclipse SUMO duarouter Version 1.12.0
<configuration xmlns:xsi="http://www.w3.org/2001/XMLSchema-instance" xsi:noNamespaceSchemaLocation="http://sumo.dlr.de/xsd/duarouterConfiguration.xsd">

    <input>
        <net-file value="C:\Users\Marku\Sumo\2022-03-05-00-09-37\osm.net.xml"/>
        <route-files value="C:\Users\Marku\Sumo\2022-03-05-00-09-37\osm.tram.trips.xml"/>
    </input>

    <output>
        <output-file value="C:\Users\Marku\Sumo\2022-03-05-00-09-37\osm.tram.trips.xml.tmp"/>
        <write-trips value="true"/>
    </output>

    <time>
        <begin value="0"/>
        <end value="3600"/>
    </time>

    <report>
        <no-warnings value="true"/>
        <ignore-errors value="true"/>
        <no-step-log value="true"/>
    </report>

</configuration>
-->

<routes xmlns:xsi="http://www.w3.org/2001/XMLSchema-instance" xsi:noNamespaceSchemaLocation="http://sumo.dlr.de/xsd/routes_file.xsd">
    <vType id="tram_tram" vClass="tram"/>
    <trip id="tram0" type="tram_tram" depart="0.00" departLane="best" departSpeed="max" from="123129804#0" to="138562519#2"/>
    <trip id="tram2" type="tram_tram" depart="166.18" departLane="best" departSpeed="max" from="147396091#0" to="35284059#0"/>
    <trip id="tram3" type="tram_tram" depart="249.27" departLane="best" departSpeed="max" from="147396091#0" to="35284059#0"/>
    <trip id="tram5" type="tram_tram" depart="415.45" departLane="best" from="148097798" to="35284048#2"/>
    <trip id="tram6" type="tram_tram" depart="498.54" departLane="best" departSpeed="max" from="13281423#0" to="138562519#2"/>
    <trip id="tram7" type="tram_tram" depart="581.63" departLane="best" from="948342148#0" to="138562519#2"/>
    <trip id="tram8" type="tram_tram" depart="664.72" departLane="best" from="948361081#1" to="356123181#5"/>
    <trip id="tram10" type="tram_tram" depart="830.90" departLane="best" from="13281423#1" to="138562519#2"/>
    <trip id="tram11" type="tram_tram" depart="913.99" departLane="best" departSpeed="max" from="25498428#0" to="35284048#2"/>
    <trip id="tram16" type="tram_tram" depart="1329.44" departLane="best" from="124335491#3" to="138562519#2"/>
    <trip id="tram17" type="tram_tram" depart="1412.53" departLane="best" departSpeed="max" from="147396091#0" to="35284048#2"/>
    <trip id="tram20" type="tram_tram" depart="1661.80" departLane="best" from="13281099#0" to="138562519#2"/>
    <trip id="tram24" type="tram_tram" depart="1994.16" departLane="best" departSpeed="max" from="25498428#0" to="648466572#1"/>
    <trip id="tram26" type="tram_tram" depart="2160.34" departLane="best" from="239339339#2" to="138562519#2"/>
    <trip id="tram27" type="tram_tram" depart="2243.43" departLane="best" from="35284025#5" to="138562519#2"/>
    <trip id="tram29" type="tram_tram" depart="2409.61" departLane="best" departSpeed="max" from="239339339#0" to="356123181#5"/>
    <trip id="tram30" type="tram_tram" depart="2492.70" departLane="best" departSpeed="max" from="13281423#0" to="138562519#2"/>
    <trip id="tram31" type="tram_tram" depart="2575.79" departLane="best" departSpeed="max" from="31131253#0" to="138562519#2"/>
    <trip id="tram32" type="tram_tram" depart="2658.88" departLane="best" from="948361080#0" to="138562519#2"/>
    <trip id="tram34" type="tram_tram" depart="2825.06" departLane="best" departSpeed="max" from="25498428#0" to="35284048#2"/>
    <trip id="tram35" type="tram_tram" depart="2908.15" departLane="best" departSpeed="max" from="239339339#0" to="138562519#2"/>
    <trip id="tram37" type="tram_tram" depart="3074.33" departLane="best" from="239339339#7" to="138562519#2"/>
    <trip id="tram39" type="tram_tram" depart="3240.51" departLane="best" departSpeed="max" from="239339339#0" to="356123181#5"/>
    <trip id="tram41" type="tram_tram" depart="3406.69" departLane="best" departSpeed="max" from="31131253#0" to="356123181#5"/>
</routes>
