<?xml version="1.0" encoding="UTF-8"?>

<!-- generated on 2022-03-05 00:09:53 by Eclipse SUMO duarouter Version 1.12.0
<configuration xmlns:xsi="http://www.w3.org/2001/XMLSchema-instance" xsi:noNamespaceSchemaLocation="http://sumo.dlr.de/xsd/duarouterConfiguration.xsd">

    <input>
        <net-file value="C:\Users\Marku\Sumo\2022-03-05-00-09-37\osm.net.xml"/>
        <route-files value="C:\Users\Marku\Sumo\2022-03-05-00-09-37\osm.rail_urban.trips.xml"/>
    </input>

    <output>
        <output-file value="C:\Users\Marku\Sumo\2022-03-05-00-09-37\osm.rail_urban.trips.xml.tmp"/>
        <write-trips value="true"/>
    </output>

    <time>
        <begin value="0"/>
        <end value="3600"/>
    </time>

    <report>
        <no-warnings value="true"/>
        <ignore-errors value="true"/>
        <no-step-log value="true"/>
    </report>

</configuration>
-->

<routes xmlns:xsi="http://www.w3.org/2001/XMLSchema-instance" xsi:noNamespaceSchemaLocation="http://sumo.dlr.de/xsd/routes_file.xsd"/>
